oceanmesh2d
VU
1        	 ! NFOVER 
0        	 ! NABOUT 
1800        	 ! NSCREEN 
67        	 ! IHOT 
2         	 ! ICS 
511112          	 ! IM 
1            	 ! NOLIBF 
2            	 ! NOLIFA 
1           	 ! NOLICA 
1           	 ! NOLICAT 
3          	 ! NWP 
primitive_weighting_in_continuity_equation
advection_state
quadratic_friction_coefficient_at_sea_floor
1   	 	 ! NCOR 
1   	 	 ! NTIP 
308   	 	 ! NWS 
1    	 	 ! NRAMP 
9.810000     ! G  
-3   	 	 ! TAU0 
2    	 	 ! DTDP 
0  	 	     ! STATIM 
0   	 	 ! REFTIM 
2023 10 19 00   1 0.900000 1800                ! StormNumber,BLAdj
7.25                 	 	          ! RNDAY - TOTAL LENGTH OF SIMULATION (IN DAYS)11.25 
3   	 	  ! DRAMP 
0 1 0   	  ! A00, B00, C00 
0.1 0 0 0.01    	 ! H0, 2*dummy, VELMIN 
168.041701 -16.357888 	 	 ! SLAM0, SFEA0 
0.002500     	             ! CF 
-0.050000     	 	         ! ELSM 
0.000000   	                 ! CORI 
8             !NTIF
Q1  
0.019302800000000002 6.495854130320701e-05 0.695 1.1557743064310526 30.701048158573997   !  TPK, AMIGT, ETRF, FFT, FACET
O1  
0.10081807500000001 6.759774407320288e-05 0.695 1.1675172163113992 319.29400132554827   !  TPK, AMIGT, ETRF, FFT, FACET
P1  
0.0470372 7.252294576167223e-05 0.706 0.9899439375053737 62.65914924106693   !  TPK, AMIGT, ETRF, FFT, FACET
K1  
0.14190875 7.292115851301093e-05 0.736 1.1053159232841516 293.96609945342357   !  TPK, AMIGT, ETRF, FFT, FACET
N2  
0.046510225 0.00013787969981621795 0.693 0.9681630689582207 322.0029458318715   !  TPK, AMIGT, ETRF, FFT, FACET
M2  
0.24292210000000003 0.00014051890276074676 0.693 0.9671329559101277 251.624336143555   !  TPK, AMIGT, ETRF, FFT, FACET
S2  
0.11330765000000001 0.00014544410427468315 0.693 1.0020922555688296 0.051490211005419104   !  TPK, AMIGT, ETRF, FFT, FACET
K2  
0.030778550000000002 0.00014584231702602187 0.693 1.2885803236238336 47.663412029203606   !  TPK, AMIGT, ETRF, FFT, FACET
8             !NBFR
Q1  
6.495854130320701e-05 1.1557743064310526 30.701048158573997   
O1  
6.759774407320288e-05 1.1675172163113992 319.29400132554827   
P1  
7.252294576167223e-05 0.9899439375053737 62.65914924106693   
K1  
7.292115851301093e-05 1.1053159232841516 293.96609945342357   
N2  
0.00013787969981621795 0.9681630689582207 322.0029458318715   
M2  
0.00014051890276074676 0.9671329559101277 251.624336143555   
S2  
0.00014544410427468315 1.0020922555688296 0.051490211005419104   
K2  
0.00014584231702602187 1.2885803236238336 47.663412029203606   
Q1  
0.01497090578611407 7.578941827586229
0.01487781328282185 7.836671331953844
0.014768962295992024 8.138404330049266
0.014653021123792433 8.790332225948642
0.014544131713254102 9.100594422770119
0.01444700573171887 9.375166319857339
0.014345279788332317 9.624286370776153
0.014238734011139178 9.865296425829222
0.014126590532915925 9.977524117855348
0.014018559801791387 10.085819328466838
0.013920898150120454 10.175799386818941
0.013832369553191311 10.264871883785077
0.01372370541627917 10.338350205102428
0.013610752991267603 10.34367946020233
0.013508980641407617 10.35110729092472
0.013425341966961102 10.361607852999967
0.01334095879324844 10.375450938900292
0.013233667079891468 10.39395050626727
0.013115410799426682 10.368179348755167
0.01300233623811176 10.202852912347716
0.012916177697479716 10.061116241786195
0.012832766851144168 9.93226386932026
0.012752098882836946 9.804582020523332
0.012671039333300924 9.686248139379215
0.012588707091552862 9.562657573895127
0.012507624711309152 9.44221231052383
0.012428546484027582 9.326118731427476
0.012350444389241074 9.092551875022428
0.012268329864101743 8.871681486510788
0.012186264459575918 8.636507828103493
0.01210794071001665 8.415067972569803
0.012036105937191411 8.215967104490284
0.011967314487057065 8.01799065630288
0.011897629472826202 7.826945142575745
0.011830848907785747 7.6316307606173535
0.01176518686115741 7.458254092499396
0.01169936771371534 7.272311583855908
0.011627090296574993 7.095696979184541
0.01155312079936265 6.913502109961274
0.011476965355021605 6.743750137858478
0.011397649401000562 6.558932475993926
0.011308021923261021 6.3607664900570535
0.011215317568608685 6.145586502897679
0.011117700114846222 5.946839523994533
0.011016843893698277 5.717886887260651
0.010907888891441474 5.4930887130894295
0.010794156364032192 5.259579059518679
0.010674789814012384 5.022368724078253
0.010550090537539542 4.78237167145646
0.01043000160051243 4.529624363201546
0.01031826638749667 4.320730711399523
0.010216276587120116 4.112222965285604
0.010117558735821921 3.9147980548736783
0.010025171376764768 3.7262959328387275
0.009934959028448369 3.404733401478878
0.009843550675681653 3.066337015135885
0.009751923116190086 2.721852368921472
0.009661930533392081 2.383154387037941
0.00957280690116541 2.0432203543580494
0.009479145040469504 1.6913063833173667
0.009392427493418959 1.3142753520993145
0.009313026017376349 0.8795293824772128
0.009241937925773 0.37694181187201914
0.009167342313698354 359.9183419802028
0.009095047281256739 359.4097529278132
0.009021575828748084 358.92033609636195
0.008948665218693863 358.41603815033903
0.008888661888028887 357.900094838503
0.008848199008830951 357.1121093608935
0.008820091054907862 356.4064564776433
0.008789850664990283 355.65361894005935
0.00875814221799373 354.89582268513794
0.008720461438809116 354.07500726295257
0.0086925273495061 353.1388611084238
0.00868949557521513 352.3729796170724
0.00871732141822576 351.54755723229187
0.00875454066055161 350.27466268800083
0.008796263619193003 349.1818751094811
0.008850312658718648 348.3493979930616
0.008919092533843851 347.5188478437617
0.008992869646421493 346.74426767961546
0.00907745906817061 345.97789313398334
0.00919532424637249 345.58680845493944
0.009334435979170452 345.1408978474279
0.009481595509818617 344.7553712348211
0.009629841973739004 344.3598844988571
0.009780857924904135 344.0058023696418
0.009936070921165597 343.6848739786577
0.010106526022510862 343.4115554212832
0.010276782140135759 343.575611442505
0.010440024467451224 343.84402250896085
0.010613514349928917 343.93477864755744
0.010819894687405646 344.1821015049509
0.011031876876950257 344.48169238496786
0.011210857012442172 344.74672080023726
0.011363585160246908 345.0144181119249
0.011494936235249035 345.44549354855917
0.011609254937086779 345.75110950919776
0.011694987410945544 346.043664440596
0.01177019878689731 346.30226991672464
0.011849327172551827 346.52126627208276
0.011961244392607885 346.8568932301607
0.01209335412297929 347.2788307274592
0.01219920108893087 347.6194386009894
0.012278186450047144 347.93724132665454
0.01234927640429564 348.1234485051284
0.01242750372205461 348.37841178288215
0.012493810829307344 348.659047180405
0.012567881547978938 348.8652130254073
0.012639877705701751 349.16304086284475
0.012726008093782824 349.3929962567262
0.012816693075001231 349.7209110774575
0.0129130244521158 350.03418794902393
0.013012468947895926 350.3203737290211
0.013120958342083853 350.6844381797084
0.013231577458126196 350.9926402207215
0.013324518076011104 351.250179333566
0.01340250638978821 351.45897138630414
0.013468772385801579 351.69281059650234
0.013533046256218628 351.89523264406574
0.013602179581565508 352.0945358564994
0.01367126383951731 352.28651112972733
0.013740352195288446 352.4396209190306
0.013814658166042385 352.6064115772414
0.013899018056690682 352.77788945277007
0.013984191444303299 352.93884414122186
0.014076187887362061 353.08602447255186
0.014167923400444635 353.2537495860185
0.014261373159076477 353.3856678596481
0.014351353421807279 353.53394742454765
0.014441708076213079 353.6711565334631
0.014527763958488182 353.79988510875035
0.01461694977645362 353.9375868450597
0.014710100474102147 354.08000354633043
0.014800118149391231 354.21855948317284
0.01488926394709518 354.34930509869935
0.01497681223388228 354.4928761019398
0.015062352935118324 354.6778013392838
0.015143728016742627 354.9448578938499
0.015220532805791913 355.2037553605656
0.015289999624448151 355.45933164779734
0.0153565581355776 355.6672788915125
0.01542400185550961 355.9195515016201
0.015487489663064468 356.1555546011247
0.015541950879352423 356.46485651603757
0.015593016706407059 356.8868181324416
0.01564250604382582 357.3550156472149
0.015691008046269404 357.7794734843171
0.015735475186790727 358.2391369978876
0.01577682244990552 358.68016263276047
0.015817837470344126 359.08992126243857
0.01585890049380914 359.5374070823275
0.015900581702589976 0.06446301189156961
0.015941541641950593 0.6789334500214026
0.01597903360213551 1.282051586812252
0.016010612355811242 1.792851019151358
0.016016444829957815 2.3166528905143466
0.01599370826567921 2.765664617352519
0.015951996562736364 3.217796886867741
0.015911191701889028 3.608324051720621
0.015867524168321052 4.01615293951479
0.015819272132856492 4.362599344124877
0.015768179776413087 4.673656404211013
0.015711296988385054 4.989240172169575
0.01564900569085563 5.336651340999927
0.015573542352233603 5.6961387111696835
0.015491760442299492 5.990886987065122
0.015406021529010354 6.210653019365337
0.015330215543508519 6.431215622477504
0.01525975050670759 6.60562322227331
0.015194935857185284 6.804976807352118
0.015129078791609823 7.029031344677454
0.015054904855787744 7.263697861538875
O1  
0.08829190007277891 24.464386937077304
0.08766857385635371 24.662161894684193
0.08687489586217056 24.92458117769067
0.08602407297917769 25.3286602916305
0.08527441131217134 25.529653975883758
0.08467926319156369 25.71981156501879
0.08405100937400539 25.90189757810216
0.0834084551249231 26.08412531761081
0.08275052500622608 26.17352395610981
0.08213261174304139 26.261387509592858
0.08157786343778878 26.33409316576035
0.0810790000217301 26.40589552941011
0.08048322881971082 26.468407128241356
0.07987724478755673 26.48995295997816
0.07933954255921494 26.506608376269238
0.07889692293746126 26.525090868163293
0.07844810400690347 26.54838522832762
0.07788036444357457 26.573359815027775
0.07727563934666765 26.571006814858706
0.07671917421477177 26.4583752878979
0.07631147014243256 26.363401507488874
0.07591158194201328 26.279081114637773
0.07552455259220936 26.19769941067707
0.07513553649187082 26.12359527327702
0.0747401084218706 26.048746645257435
0.07434882904802045 25.979126527047494
0.07397710702248977 25.913949446892648
0.07362234720161978 25.766016087206634
0.07325480963502606 25.629239841529838
0.07288233680384495 25.484014651849733
0.07252525751079827 25.343958207824038
0.07219727167061392 25.21688424586324
0.07188272327184672 25.091405133073646
0.07156406193971629 24.97196219996305
0.07125872352293555 24.850866361073304
0.07095831739050996 24.745131617626924
0.07065575378281724 24.633731232264015
0.07032105369227268 24.531823102300134
0.06997640856674735 24.4308148497594
0.06962060949632096 24.339001739388795
0.06924918762275147 24.242072817329852
0.06882805249520706 24.1419115082462
0.06839072512728823 24.0387090574346
0.06792865863868164 23.947944381101593
0.06744956714766362 23.84797943995658
0.06692932503564013 23.754974461575806
0.06638283303805756 23.667488276044406
0.06580798306635444 23.585064968235276
0.06520752715212955 23.50353641520742
0.06462856658867423 23.420119314874054
0.06408772447279518 23.354638291301143
0.06359231897762839 23.291412937701626
0.0631116994789668 23.23313093351391
0.06266382070524348 23.176967995516186
0.06222844379288805 23.02149069189189
0.061787533121449564 22.856867764968953
0.06134222447872158 22.688645328353417
0.06090153562171115 22.52377822216765
0.0604616026793207 22.360661351956697
0.059996545421225636 22.190601594454428
0.05956523908036092 22.005937184959375
0.05916930469019068 21.752024902564152
0.058812833045210115 21.457085381371954
0.058435683910335774 21.186273503422825
0.05806743491973192 20.883692708096678
0.05769106628639353 20.59025412097459
0.057315744246755285 20.285410825485872
0.05700376033782955 19.965776755349495
0.056789204052516355 19.40185584690573
0.05663521279181749 18.897205612532044
0.05646834213818819 18.359888290905484
0.05629064408796171 17.82030676156906
0.056077417518411325 17.238060455582154
0.05591199589627126 16.57577970044833
0.055875945516994985 15.998698725021244
0.05599542111158367 15.357555697821319
0.056156677326985725 14.371134655246198
0.056341277062892874 13.528929641901314
0.05659409718854083 12.873159764593805
0.05692069988165579 12.20346313156864
0.0572631977498531 11.580736001918359
0.05766583713037623 10.955418523025353
0.05825433145676336 10.560867522977688
0.058963885903358416 10.096137182981789
0.05970664843916889 9.686799677154694
0.06044500661747792 9.25213839120613
0.06119197947638371 8.851980659623532
0.06195760890841479 8.478016703507933
0.06282547275934897 8.114773583068315
0.06373395387615471 8.070724839337256
0.06462852784565512 8.127501640586633
0.06557743485484799 8.037202270890834
0.06670980389629086 8.040234021108672
0.06788307279348368 8.068270240104283
0.0688706991927964 8.111645356428449
0.06972374171018596 8.19475595202281
0.07047791182994836 8.384678753405122
0.07115198182208193 8.526396640946425
0.07167139415230064 8.672538783522603
0.07212892345019745 8.810774982134491
0.07260094625609256 8.926037839473041
0.07325358305658608 9.102929493692617
0.07402481990201126 9.321267589569475
0.07466093578508917 9.500285993941864
0.07514271885156626 9.698672253479469
0.07557921665055406 9.77859656582602
0.07605904830353595 9.929337987034554
0.07647813430854247 10.098694235052314
0.0769405284098216 10.22536436207843
0.07738932733024864 10.406952625126037
0.07792552965027941 10.548015668280662
0.07849164647715426 10.751217211183127
0.0790957636066845 10.948804338587841
0.0797234360660825 11.133761592443555
0.08040903849261143 11.375272812626974
0.08110668212175363 11.586139535325486
0.08169111354010439 11.76843899182042
0.08218138409512378 11.923938493559515
0.08259585159165513 12.115649096957078
0.08299098121268403 12.284988269501913
0.08340461722442076 12.455338310043908
0.08380929785115372 12.623464270237417
0.08420526491744171 12.758923996951696
0.08462247763361244 12.90774784255075
0.08508723335606705 13.06121450923812
0.08554523672376355 13.208566449071036
0.08602599054574961 13.346514072190491
0.08649552890232626 13.50295784758234
0.08696450846535812 13.624717922368866
0.08740790592772614 13.76013752172177
0.08784927534205567 13.881737087062799
0.08826601015669953 13.992475797849862
0.08869483066456652 14.109202023218087
0.08914025255611958 14.227492361906245
0.08956836823906211 14.341179153093815
0.08998925111123487 14.447636189044927
0.09040003738233016 14.562455084087427
0.09079920074769422 14.707736622828183
0.09117687727723797 14.915295826421115
0.09153118090970169 15.115413538913318
0.09184958764484945 15.313296071999636
0.09215192369052336 15.473885772217683
0.09245826048510408 15.668190993726204
0.09274617710283818 15.847871072674439
0.09298998926367072 16.082387325374118
0.09321274970258979 16.40187966908522
0.09342453926801675 16.755511005815336
0.09362840503454203 17.07750832140454
0.09380951779229293 17.42877982777642
0.09397436359098973 17.76646438034185
0.0941399088927677 18.077924421589017
0.09430717974901193 18.411563794618505
0.09447611442634032 18.793974133416473
0.09463484947170524 19.22826829669715
0.0947669374091284 19.655407836822235
0.09485497283084046 20.026136844592187
0.09480997089828756 20.415157098959433
0.09461947785956512 20.745929500084813
0.0943373303328241 21.080267259956937
0.0940534210630825 21.37271205455479
0.09375631787947239 21.68182934091664
0.0934394193547112 21.946958501476317
0.09311414446149548 22.18676985833005
0.09275661068303237 22.432593489200688
0.0923639759421348 22.7054356408806
0.09190270283392492 22.990456019850647
0.09142032031502036 23.222795149752386
0.09093065921749381 23.39767531326139
0.09050144170011787 23.575593203403763
0.09010065879140575 23.716645147500987
0.0897215102400098 23.87543850796732
0.0893208246145929 24.050902652650365
0.08884324473994112 24.229394278683014
P1  
0.04924876232232363 41.63982821834878
0.0488125074122633 41.79284153122999
0.048218049960476975 42.03822973754104
0.04756596844111167 42.313991795091134
0.047003122419118845 42.434097256551226
0.04660306125879284 42.5537724160936
0.046184320641415436 42.6729421416374
0.04577263668179509 42.795984584440596
0.04536795073321884 42.82455868083334
0.04500005191990304 42.85049973930105
0.04467066579631393 42.866854627268644
0.04437630825809067 42.88063794901373
0.04403906975473673 42.88245819442754
0.04370785302349496 42.82083964283027
0.0434202255947249 42.77967067760802
0.04318297356367108 42.73953990113961
0.04294116401246613 42.69891735105096
0.0426375472119876 42.65884121609591
0.042330057599714796 42.54317879269091
0.04206507961664878 42.34430075953306
0.0418851985463074 42.1715755207072
0.04170504744563781 42.01490805662003
0.04153119517224173 41.85936415865133
0.04135694503784177 41.714287525585675
0.041180291559014974 41.5637262506165
0.04100488041128428 41.41961267422381
0.04084840789437291 41.28791296664763
0.04071181171706742 41.070747101987074
0.04057702645659444 40.86880231389189
0.04043634352939467 40.65154424167754
0.0403000892273017 40.44052554727
0.0401743377958025 40.24754538246046
0.04005346755896293 40.054947708244434
0.039931257814168904 39.870655544059154
0.03981443515845705 39.68314636077479
0.03969979860952919 39.51807776400851
0.03958338062678062 39.342842430662664
0.03945239920701296 39.1743519091222
0.03931569872157911 38.99935221730272
0.03917402422853876 38.83819390383627
0.039026037816490416 38.66511691026815
0.03885771493826591 38.48376172742597
0.038682461529970145 38.29225688347715
0.03849667512944764 38.12026588998706
0.03830351307988164 37.92772968747357
0.03809228816202706 37.74468403281181
0.037868285817759355 37.56013573653266
0.03763123378157613 37.37623972331923
0.03738314828702379 37.19048248355698
0.037143233099154044 36.99647437527735
0.03691797256469724 36.83961225079884
0.0367106004485062 36.68557440954213
0.03650770911148614 36.54074024819201
0.03632430721606525 36.40383252137369
0.036154418545109854 36.194377940286074
0.03598773660404339 35.975613811359736
0.03581681847572324 35.754479606791406
0.03564627500517025 35.540134610258065
0.035474706228290256 35.33020874611772
0.035291107850415344 35.11418352304856
0.035125812036650494 34.88225420449702
0.034982622095516724 34.62694173332194
0.03485990230526241 34.33483161799342
0.03472692093678881 34.069693919697286
0.03459589087537354 33.77650804957449
0.03446085176297594 33.49497789727032
0.034322737157344796 33.205323234948416
0.03422316536307332 32.91041274206019
0.0341770315808909 32.477873937396204
0.0341630446059363 32.093248909759865
0.034136802277394684 31.68601254087619
0.03410518946392194 31.27948309657162
0.034058386406728175 30.84303742370239
0.03403234864984238 30.34934110521011
0.03406143209763933 29.95308426541724
0.03416824936866758 29.529219800999172
0.03430275438087325 28.87483986718776
0.034444360860756446 28.313796175931866
0.0346047405685697 27.893276796659812
0.034792464439358003 27.480106700934694
0.03498500447188103 27.09209219192273
0.035198935653482144 26.698495710811578
0.03549484631844927 26.4878714598286
0.03584174524460518 26.238007772063902
0.03620288329465046 26.016678907104225
0.036559662116425355 25.7834706356306
0.03691962254898887 25.566658233259595
0.037286742989506017 25.359768388205325
0.037698032813412774 25.161580204153648
0.03812441123383383 25.19088000814571
0.038543719159705274 25.280840429703947
0.038990034908056234 25.264085975669907
0.03952329297150882 25.32067238539617
0.04007811386670382 25.396899004080804
0.04054803284151211 25.47102533959566
0.040956796386412184 25.559360176131435
0.04132048189640042 25.732449122530607
0.04164939086352073 25.853454461413843
0.04190711049096922 25.986180404912826
0.0421356742935521 26.111934432816515
0.04237073596034728 26.219856544344594
0.04269325977989602 26.388022631899478
0.04307498240045136 26.58971470299537
0.04339351632765358 26.74926962955416
0.043638795082058195 26.923097943930983
0.043863866371767826 26.9994884871557
0.04411237463355061 27.136572091345148
0.04433159923979211 27.293324932796942
0.04457547249538555 27.41236829984109
0.04481394727315219 27.585581897192615
0.045100677545581516 27.72058229368521
0.04540599329130987 27.918229185245163
0.04573468023112839 28.1125531897739
0.046080907859972514 28.297130514357033
0.04646381735801694 28.54371058867825
0.046858226401465246 28.763992727147624
0.047193572457347566 28.958875099641013
0.04747929658208571 29.12782324385586
0.04772414277706824 29.33058423955686
0.047959621889250584 29.513694781015733
0.04820711591414039 29.701422530353533
0.048449879139661756 29.890352392985257
0.04868775457143781 30.04491615880806
0.04893851652741429 30.2171462089191
0.04921844441975863 30.396623089739528
0.049495264036314796 30.573794781715073
0.04978720694780347 30.743518152400718
0.0500724735004561 30.939633374039296
0.05035735091992783 31.094647932347318
0.05062646557177812 31.270347718556728
0.050893545363630534 31.429528692258458
0.05114462854606761 31.575141495173963
0.051402552319424456 31.731143015817054
0.05167020229356626 31.890576706518075
0.051927214648042376 32.04550930255606
0.052179557297910927 32.19366635093739
0.05242382138967511 32.35408017378431
0.052654828024761985 32.536879941635945
0.05286695275987894 32.7760048644781
0.05306131680096895 33.00857280571703
0.053235411856855624 33.23491502952749
0.053399170083659 33.427936175472055
0.05356463758008817 33.65595179562918
0.05371450590235843 33.86555664087853
0.053828914144209414 34.118434149614494
0.05391739202397207 34.44560362595269
0.05399319646613935 34.80745680289621
0.05406304789440969 35.137836468144314
0.05411882294075826 35.4995598714936
0.054164117574691736 35.8464993303844
0.054208698549440895 36.163795768277346
0.054244618437119856 36.49775445265053
0.054259786861283396 36.85623693123865
0.054247818993670566 37.246616393250726
0.05421722712261333 37.63284993043661
0.05416743968214304 37.9758961815005
0.054048337787389725 38.342595377660146
0.05384488105773921 38.617220208713434
0.053595043399504216 38.89661592690197
0.05334661794560293 39.14327113330406
0.05309809659208566 39.406923265455724
0.05284532521452219 39.631510130649495
0.05259684664862493 39.83171663560091
0.052330186643770725 40.03905385804582
0.05203989339726309 40.27041968599083
0.051710858515330686 40.51441111861661
0.05137996205261772 40.69305130126371
0.051055654776947804 40.82224091431991
0.05077451435582975 40.95411479171994
0.05051141413194789 41.05971976157209
0.05025772388492308 41.181303958987485
0.04998289995959823 41.31954015759937
0.04964365480201582 41.45813494114269
K1  
0.1677444905042647 45.41181726296125
0.16617789438792624 45.56761046283465
0.16396752127579267 45.82232529245736
0.16151291131973255 46.08261697153737
0.15940488917486997 46.192323469986114
0.15797641703060683 46.30459811956278
0.15647821554115832 46.418549580580695
0.15501542006220126 46.53722753250425
0.15358725232737394 46.56909719517153
0.15229868505682254 46.59841578218381
0.15114964927945806 46.61692900992913
0.15012725804533267 46.632607709168894
0.14896808990410385 46.6374810491417
0.14783971607685079 46.58712889458036
0.14686605760029375 46.55271498644725
0.14606204160622177 46.518516229273
0.1452413810150963 46.484160377747834
0.1442118614912032 46.44924445071073
0.14317918888160153 46.3447732922608
0.14230038779122478 46.163520562256174
0.14171353493418004 46.006170079252
0.14112224451133173 45.86373331430055
0.14055100423949096 45.72240303999465
0.1399775573185511 45.59057014372965
0.1393954851797648 45.45422932261244
0.13881643840244828 45.32440450196342
0.13830709329673213 45.206658870861574
0.1378716711487088 45.012360479542224
0.13744604928152893 44.832309862831515
0.13699500305312012 44.63899160365806
0.1365538043635231 44.449549476838584
0.13614357837608873 44.27578946435346
0.1357481198651449 44.10245975378605
0.13534783635820652 43.936892553210356
0.134965025952884 43.76863425810168
0.13458881718771787 43.621132907880664
0.13420570407594945 43.46523384007512
0.1337730897324425 43.316335716168844
0.13332021491868146 43.16273159192443
0.13285022335393076 43.022258506359364
0.13235875708716247 42.87297447676498
0.13179980346134723 42.71837314490174
0.13121780710560926 42.55804128432486
0.1306015908718108 42.41659148170848
0.12996109681470044 42.261395923387454
0.12926103941031858 42.1173199130352
0.1285189530679157 41.97700050672646
0.1277353244168417 41.84099436487858
0.1269168870789663 41.704967732463196
0.12612628447157986 41.56487372239706
0.12538334088666092 41.45456616730136
0.12469946295022954 41.3481654804109
0.12403056153229296 41.249418020485436
0.12342746108770362 41.15645573078698
0.12286930658987581 40.99834709678494
0.12232114842959804 40.833087254721896
0.12175650128296435 40.66614718612303
0.12119089152131754 40.504954721710725
0.12061968488352631 40.348755125581704
0.12000673349414545 40.18737824606181
0.11945234260388775 40.0122726863102
0.11896857661860322 39.80547504880972
0.11855036446026385 39.56800303174672
0.1180953649537903 39.35117867654466
0.11764450030667434 39.10963586673633
0.11717777869531079 38.87584873673055
0.11669966876506797 38.63329847401964
0.11634449533053799 38.382507588075114
0.11616405206067212 37.987811446507585
0.11608883993966229 37.63635723257541
0.1159755057522228 37.26331962086599
0.11584334714072084 36.89083525447935
0.11565887268100458 36.48984167849707
0.11554640914712626 36.035569211894106
0.11562733309609541 35.661148486877764
0.11597955290760305 35.256637363472926
0.11643390442643839 34.63471448859742
0.11692548862525386 34.104838658071586
0.11750090526682982 33.70937753531702
0.11818219870328896 33.325906809650405
0.11887805121285566 32.97312070883007
0.11964454650878897 32.61769132480095
0.1207232422062328 32.42710172620092
0.12201687033687311 32.214508673189684
0.1233750709465571 32.0269824144324
0.12470869549683154 31.816240342686243
0.12604975402355184 31.621737045691788
0.12742886607136036 31.44080533457815
0.12899986250059936 31.282303964698833
0.13065337921891884 31.344687497483147
0.13230417115347717 31.45624839229155
0.13408724921090254 31.490621319289637
0.13624667354992448 31.59830608174406
0.13846997235502506 31.71339818435336
0.14029416186468932 31.79226979379408
0.14180524391787383 31.87543076203357
0.14313193942819313 32.01883741384716
0.144365495443344 32.11138647710083
0.14538146087101517 32.21597716386124
0.14629745994295384 32.3247684169612
0.1471895068883895 32.416323687690635
0.1483511516026087 32.558091094103425
0.14970609077385483 32.720902313349015
0.15084738986832746 32.83962807659676
0.1517465169940675 32.96178259480786
0.15259402436869474 33.00585097533278
0.15352510469300396 33.11124762441524
0.15433622172900596 33.238893614719025
0.15521634774548654 33.333450753588686
0.15607074541704985 33.46199832886291
0.15710149535111007 33.55693795832609
0.15820282655102855 33.692664062418
0.15939432169709877 33.823130920848996
0.16065190179007383 33.94862540156422
0.16203596677098944 34.12239907442768
0.163449865579605 34.27506063256664
0.164641887801034 34.40648371748144
0.165650148476873 34.519318442570054
0.16650697674070075 34.66358911331365
0.16732356420585076 34.79354370755689
0.16817506211144573 34.92529122645727
0.16900410865034365 35.0574588019916
0.16980971949441082 35.1653757908778
0.17065290553229184 35.28355172389737
0.1715890965291431 35.40598286476984
0.17250885665416704 35.52796662825168
0.17347129796232486 35.646470410351405
0.1744062989950179 35.78467587311203
0.17533429435321252 35.89587135279984
0.17620560101100363 36.02288896569998
0.17706787458487908 36.138889483468894
0.17787633069923936 36.246113208154334
0.17870507623468115 36.361683424005534
0.1795647310359136 36.48078826275222
0.180390566587448 36.59814457307138
0.1812017772878918 36.71244778883154
0.18198247722217004 36.83854332619373
0.18270299604960838 36.98893043133907
0.18334529527596052 37.193036974306565
0.18392009735107412 37.393284460393
0.18443512405667972 37.59156143690388
0.18491723665169296 37.76047543017288
0.18540806003979263 37.96232801071427
0.18583966961928763 38.148314061813714
0.18613535591534192 38.376384323484196
0.18631646590573434 38.67501385437549
0.1864470494644981 39.00593310456803
0.18656182033675045 39.308957862190226
0.18663481303623733 39.6418715276204
0.18667764280523558 39.96189321099218
0.18672487906047264 40.254392647103394
0.18672950863838184 40.56102032951278
0.18663222065993706 40.888391296431486
0.1864203423261641 41.246641548587824
0.1861533646072659 41.604041442192496
0.18583798195634557 41.922895163216204
0.18530025780200945 42.26551111236238
0.1844781173127037 42.52262333838376
0.1835088597876684 42.78454743267541
0.18254867025784072 43.01652114745655
0.1815993568726947 43.265126372866675
0.18064675203391473 43.47748036925696
0.17972241554941437 43.6674074395075
0.17873837820121208 43.864523283859484
0.17767211113657258 44.08486860157868
0.17647914034979673 44.31768242962774
0.17529731009687682 44.490021762765494
0.17416026251656658 44.61589190388508
0.17318742360387518 44.7449858942929
0.17228082546166 44.8483266564352
0.17139654755592335 44.965881042240284
0.17041919316564275 45.09879310839415
0.16918589855943394 45.23256236328885
N2  
0.08131753312689911 161.47045311152044
0.08410545779126025 160.86897299283078
0.08831246644258493 160.05395383992985
0.09310645886829916 158.81233473184824
0.09718283755438661 158.40311077791608
0.0995399287768772 158.09347098208275
0.10190163850784295 157.84583564353477
0.10404804476669849 157.61519381564176
0.10600292810371936 157.59300936121755
0.10765594031129558 157.58973087041596
0.10908339662211274 157.61430589104967
0.11030701356274733 157.65512310152965
0.11157864502498074 157.72756408786682
0.11272399510656075 157.97709821900406
0.11365828301225382 158.1452301556131
0.11441923337323318 158.3099060165021
0.1151889360376766 158.48261417985503
0.1161258386714117 158.64841019176794
0.11699304708412708 159.0018451605594
0.11765084330524708 159.4460943245554
0.1180177096809659 159.83011488045017
0.11839343479701442 160.18025769806172