oceanmesh2d
VU
1        	 ! NFOVER 
0        	 ! NABOUT 
1800        	 ! NSCREEN 
0        	 ! IHOT 
2         	 ! ICS 
511112          	 ! IM 
1            	 ! NOLIBF 
2            	 ! NOLIFA 
1           	 ! NOLICA 
1           	 ! NOLICAT 
3          	 ! NWP 
primitive_weighting_in_continuity_equation
advection_state
quadratic_friction_coefficient_at_sea_floor
1   	 	 ! NCOR 
1   	 	 ! NTIP 
0   	 	 ! NWS 
1    	 	 ! NRAMP 
9.810000     ! G  
-3   	 	 ! TAU0 
2    	 	 ! DTDP 
0  	 	     ! STATIM 
0   	 	 ! REFTIM 
4.0                 	 	          ! RNDAY - TOTAL LENGTH OF SIMULATION (IN DAYS)11.25 
3   	 	  ! DRAMP 
0 1 0   	  ! A00, B00, C00 
0.1 0 0 0.01    	 ! H0, 2*dummy, VELMIN 
185.373080 -19.320714     	 	 ! SLAM0, SFEA0 
0.002500     	             ! CF 
-0.050000     	 	         ! ELSM 
0.000000   	                 ! CORI 
8             !NTIF
Q1  
0.019302800000000002 6.495854130320701e-05 0.695 1.1589245896791631 30.419416960328476   !  TPK, AMIGT, ETRF, FFT, FACET
O1  
0.10081807500000001 6.759774407320288e-05 0.695 1.167317788815397 319.2819423096243   !  TPK, AMIGT, ETRF, FFT, FACET
P1  
0.0470372 7.252294576167223e-05 0.706 0.9899146461672245 62.655943400348804   !  TPK, AMIGT, ETRF, FFT, FACET
K1  
0.14190875 7.292115851301093e-05 0.736 1.1052988195663027 293.9717004770814   !  TPK, AMIGT, ETRF, FFT, FACET
N2  
0.046510225 0.00013787969981621795 0.693 0.9681630689582207 322.0029458318715   !  TPK, AMIGT, ETRF, FFT, FACET
M2  
0.24292210000000003 0.00014051890276074676 0.693 0.9671537034594112 251.62958295707494   !  TPK, AMIGT, ETRF, FFT, FACET
S2  
0.11330765000000001 0.00014544410427468315 0.693 1.0020956276865223 0.05185213038966728   !  TPK, AMIGT, ETRF, FFT, FACET
K2  
0.030778550000000002 0.00014584231702602187 0.693 1.2884771109827873 47.67095529009637   !  TPK, AMIGT, ETRF, FFT, FACET
8             !NBFR
Q1  
6.495854130320701e-05 1.1589245896791631 30.419416960328476   
O1  
6.759774407320288e-05 1.167317788815397 319.2819423096243   
P1  
7.252294576167223e-05 0.9899146461672245 62.655943400348804   
K1  
7.292115851301093e-05 1.1052988195663027 293.9717004770814   
N2  
0.00013787969981621795 0.9681630689582207 322.0029458318715   
M2  
0.00014051890276074676 0.9671537034594112 251.62958295707494   
S2  
0.00014544410427468315 1.0020956276865223 0.05185213038966728   
K2  
0.00014584231702602187 1.2884771109827873 47.67095529009637   
Q1  
0.004650417981403212 24.866468220684908
0.004705398423331121 24.404016602550854
0.004770470330757751 23.969044542995054
0.004829387579645426 23.48541933843396
0.004878418267305404 22.98345849104597
0.004948644073946132 22.466199727464442
0.005030063433306554 21.80405045347214
0.0051055033824273476 21.449268229866874
0.005157702895147456 21.1474216798765
0.005213008661355287 21.046172663167525
0.005265138404709949 20.939900042324005
0.005315850249358582 20.850407488723913
0.005366708245128389 20.75698586880377
0.0054185307318610765 20.65836135228337
0.005468841056738578 20.60852316945708
0.0055173404381743466 20.63600102048804
0.005564728246203486 20.661549343078473
0.005608149285295176 20.685663325943203
0.005647771925266296 20.709500686146548
0.005690911465457503 20.792769229865467
0.005738562558378488 20.956495694459843
0.0057847311720252 21.103182544622328
0.0058282487094402265 21.21614533575788
0.005870539083012509 21.31426100318511
0.0059121684437351526 21.466635693378926
0.005949102887617686 21.64333097965986
0.005983466548579076 21.830717219539164
0.006014143742088756 22.007443241671364
0.006042882640446931 22.170585725091705
0.006083492149731939 22.337425048400313
0.006130247376859184 22.577359348659105
0.006174164558095587 22.702397914247236
0.006209807324090171 22.807126912338337
0.006248106408332071 22.88615561612997
0.006285470976893387 22.961024734717064
0.006320958996989893 23.02709656965318
0.0063587914620126945 23.092784206448485
0.006401645658271649 23.16606872114814
0.006451214557247498 23.25176710466429
0.006511289040957174 23.315805250775036
0.006579296463834383 23.256391142732387
0.006645212229341264 23.207022535411536
0.006730851797120907 23.163213702075073
0.006860609272761 23.096706442579364
0.0069979901824678645 23.060340807890924
0.007106391234057285 23.07733602609321
0.007188170616115838 23.122599689722882
0.007268270916704615 23.18191476002257
0.007353830537093532 23.255851557787956
0.007435587514191861 23.535745879785907
0.00750080634440694 23.814204154510865
0.007547251334679973 24.025419216857046
0.007600082217582629 24.205927456242144
0.007647297025791231 24.372923873901662
0.00767461444650377 24.652032724145066
0.007681362184562848 24.980476030763466
0.00768340538655008 25.29547581754799
0.007667748284127025 25.68433385492245
0.007627721436853915 26.14168673684109
0.007575117144733662 26.61185134609538
0.007529736749295673 27.0297137817803
0.007488955756915461 27.42532004605473
0.007438884502542865 27.837800292673677
0.007369363627263473 28.334185998151646
0.0072875295499605745 28.907969699756908
0.007208463642746205 29.423017189594642
0.007141416865800104 29.968336077833875
0.007076158574117077 30.45740494316347
0.007013410675738535 31.044487023082745
0.006943139540297639 31.601902176342072
0.006874403570379524 32.18869738831621
0.006804301150675326 32.66524651689716
0.006741300584482291 33.20234527247029
0.00667862249538302 33.670097117400275
0.006619589935455999 34.140844000281305
0.006562588190925968 34.58814967393086
0.006512113806924646 35.00652608135082
0.00646603376205478 35.40841782720895
0.0064231654229973 35.83281846147686
0.006381189663495332 36.1951019403381
0.00633926710912159 36.605633875496295
0.006291844003966872 37.06922272012716
0.0062335970545453635 37.65653019628905
0.006163841086838923 38.36756313417113
0.006091944101665697 39.04480712622916
0.006023795024624888 39.56973106960673
0.005960969374115973 40.024024026777205
0.005904792914433134 40.39958197829036
0.0058550686043287985 40.72583279418519
0.005808503207351476 41.044799213330194
0.00576390158385038 41.36229031161448
0.005723218619823452 41.66961467331921
0.005686541926115747 41.960604637623845
0.00565357480996421 42.22103975067643
0.005623987144125355 42.37230453513012
0.005596520232834982 42.52038303633599
0.005569684438939602 42.67421255682302
0.005541724245995279 42.8313786247196
0.005516936031303231 42.98828514542772
0.005496950860002207 42.91961442351241
0.005479883668678144 42.85407875842614
0.0054611065691070855 42.792074301140765
0.005441019191805802 42.737948467063
0.0054219307111842245 42.69156806750402
0.005404501474861585 42.65598961211743
0.005388642328658271 42.61687653383535
0.005373297884528122 42.496740336524
0.0053585073777607465 42.38295963023534
0.005343560674893001 42.26039188557946
0.005327843914606738 42.13275955565402
0.005310553724744487 42.03775503939372
0.005291938914784361 41.94487812705989
0.005273047395582706 41.85526604514932
0.005252186568187812 41.76372443479823
0.005230399207877257 41.65590648365499
0.005209797993302342 41.57116091152806
0.005189692095986431 41.434919128153815
0.00516788710707 41.25932520987654
0.005145575771374358 41.09578316038976
0.005124430065708497 40.93306756379254
0.005103866689439327 40.76916351427975
0.00508428531299744 40.614555352227335
0.005066146914448053 40.46647685102146
0.005047193315944498 40.323712236989856
0.005027860536106992 40.15241109260593
0.005009046955300226 39.933592322166234
0.004991526595715962 39.71206538172063
0.004973406145083049 39.483622874740384
0.004954864776560235 39.25350014122431
0.004936090470956901 39.02727061553515
0.004917205271444147 38.7953208064161
0.004894032169665606 38.5516299021138
0.004868336487561461 38.18548053618234
0.004843603500298088 37.87546166485005
0.004822631486292393 37.60009234317723
0.004802256223878687 37.32532407815137
0.004780969076922959 37.06137483277082
0.004759860384677134 36.770760528870525
0.004738609412951126 36.517268303109255
0.004716998844274449 36.24086762287177
0.004695119682167254 35.943204563748026
0.004674215840974021 35.53217402478041
0.00465607725616012 35.1169770704191
0.004630582713122876 34.73014247658625
0.004601280856877563 33.987912649670136
0.004575977514364886 33.55950610945401
0.004561899096838063 33.08892656620764
0.004550131836107796 32.56856860429022
0.00453846618267042 32.06939105898901
0.004527129006705111 31.577415948167577
0.004514852246003488 31.081182214398638
0.004506959473448138 30.59274514156727
0.004507001090262614 30.079429104684134
0.0045129279073859935 29.071078032231398
0.0045190996091280635 28.33549056428312
0.004529499395617413 27.688420640430913
0.004546136954533199 26.9851843634864
0.004566604098571195 26.464524165698204
0.004587918546582968 25.95674911977924
0.004612540812896828 25.426880119442576
O1  
0.031692666560411434 42.26629658411694
0.03232361642377715 41.952842127632124
0.033037025268588725 41.62162917930528
0.03366540265934806 41.24625222780514
0.034158029620136504 40.86113884164314
0.0347365499607154 40.47971717272753
0.035346568588699584 40.00551762922105
0.03588383091347555 39.755645403719896
0.0362329307411398 39.54814084164032
0.03657742302332603 39.480081421655726
0.036884346285036604 39.41139020917291
0.03718186904277118 39.35565586554561
0.03747581339308191 39.29957659736522
0.03776937244193892 39.241274102609985
0.03803995709334098 39.21045628907489
0.038285864251000515 39.222224705014824
0.0385199780975069 39.23375064923922
0.03873550051024979 39.24802574460455
0.03892627071057045 39.26703416106469
0.039113110623189354 39.32603333511526
0.03929794643606455 39.439151513054426
0.039465915837458176 39.544100784746256
0.03962201263223373 39.620950658192655
0.03976350203156469 39.66461264246196
0.03988915362528389 39.73219394920466
0.03998455916132243 39.83258748472009
0.0400669340576444 39.96152779587159
0.040128733537026784 40.091974163735074
0.04017721616796082 40.212998285638534
0.04022828180875094 40.33257099234336
0.04027493596076963 40.49123970185734
0.0403104456407683 40.55246210248275
0.04033925756812093 40.58321161412615
0.040377821453980015 40.58595051998332
0.040419455404792484 40.58360435000343
0.04046180280191555 40.57683904763053
0.04051331845777372 40.558482914236116
0.04058020221335544 40.52162379838014
0.04067197580422671 40.478214531110126
0.0408182512436594 40.406504375014165
0.04101357747401507 40.25083411854582
0.041217326159988105 40.10479784390178
0.041483064528022466 39.95480347463371
0.04190419827188761 39.66531615194648
0.04236806780099866 39.33732022271871
0.042753205129078424 39.17717277724942
0.04305051778044017 39.03335631408563
0.04334395325609613 38.92440113644559
0.043649249843188666 38.83324543178259
0.04391805699893404 38.84382539480695
0.0441042469016143 38.934697646619384
0.044212503944124466 38.98752574475484
0.044341297660555126 38.99852234931856
0.04442402145692277 38.99561610382673
0.04439453919019015 39.1255877735429
0.044256881198712725 39.32767941070524
0.04407560112220897 39.535423029405756
0.04378951638936993 39.80673521871159
0.04337905805025779 40.1876309630611
0.0429281831852027 40.588863595664336
0.042528407169239835 40.94339822491219
0.04216969119650974 41.287527060959526
0.04177923383457317 41.65831412533742
0.04129696637392041 42.131209102712425
0.04075663345200672 42.688064180459804
0.04022980034351346 43.175012272052115
0.039771405288151304 43.67154311904994
0.03931901071752818 44.1108301506139
0.03887851866228237 44.63789535829627
0.038402099481650735 45.140580205736285
0.037955753398793056 45.67948896143946
0.03751330918499399 46.12422648396109
0.03711128979921338 46.628577897558586
0.03671131453343798 47.06601053276288
0.03633858891470089 47.49893524311497
0.03598389934216224 47.90199836641576
0.035672603441136194 48.276979166944045
0.03538949659892489 48.637145287162575
0.03513467077698024 49.016849163501924
0.03489706494978494 49.34042596033669
0.03467144093343187 49.71638347791629
0.034420715378863445 50.14942430148427
0.034118569216557884 50.7171325498228
0.033755314775875615 51.431051242629216
0.03337692597082681 52.12998450039662
0.033010482149464726 52.68490663460889
0.03266453146934507 53.16585440501534
0.03234704381653239 53.55933135781602
0.03206000338707649 53.89710470284066
0.03178868996245518 54.22615248120061
0.03152785982404434 54.55055914601953
0.031288647864546076 54.85693752652421
0.031070722958871276 55.13872039582767
0.030882706865668276 55.38261962089965
0.03072569710867743 55.51283034723678
0.03058847194271426 55.63910688461198
0.03045351212578158 55.76862776184293
0.03030994640929356 55.89578197852647
0.0301946522934096 56.01688464760538
0.030120692402124387 55.927672131761256
0.03007491842976636 55.84345248420042
0.03002034425735472 55.76253523310328
0.029962419718503934 55.68993715241521
0.029907640176159975 55.625620676095785
0.029856931737491044 55.57495091773804
0.029818324585046067 55.52224917810223
0.029790115250008423 55.40151192414391
0.02976872106747966 55.287929293341186
0.02974579334259031 55.164446303336526
0.029720164888671442 55.034676124200864
0.029689197455133688 54.93116802242391
0.029653462448290393 54.82842831692858
0.02961739498589718 54.72918908338288
0.029576729557343872 54.62773003835692
0.02953288539179732 54.507761180680234
0.02949471484337532 54.41279764555496
0.029464463676725092 54.28029880584588
0.029436077337179845 54.11065056724111
0.029405450874141262 53.95475149943557
0.02937459695552075 53.80393067727793
0.029343298556549186 53.65307228907986
0.02931281402707098 53.510867750560195
0.029284090601972148 53.37453034453757
0.02925280492220604 53.24245497655703
0.029225256932633243 53.08245096506031
0.02920523855303013 52.89421095153476
0.029192113557032155 52.704331692608406
0.029177631490996885 52.507413923742355
0.029162398566092745 52.3078084754379
0.02914647018270831 52.109907159331364
0.029129148381096953 51.90523029556818
0.029108296228306615 51.68750777049027
0.029088211644973053 51.36509893600357
0.029071106761693936 51.095627482679056
0.029056739221726125 50.854361295532115
0.029040546981351695 50.61166076865946
0.02902202595557483 50.376128525320745
0.02900176505957329 50.115563638673926
0.028979478776454907 49.88641079202
0.02895317535315239 49.63540475511662
0.02893771438726355 49.368702943500544
0.028939202108553455 49.0404064859493
0.028950707295111226 48.70886568854229
0.028959814991269775 48.39939664743819
0.02896386416895047 47.80704166147966
0.028980111383966018 47.46529314635807
0.02902090608009268 47.12685727298394
0.029085328057408315 46.76210468073775
0.029150980710983255 46.41407580667433
0.029215567825095975 46.0729522538618
0.029275308868714718 45.73134717271278
0.02934622498495236 45.39731677135331
0.02950159023915016 45.09175801354903
0.02972463752542221 44.501691140962464
0.02994915246963499 44.08209212968107
0.030162631454212302 43.73002319872359
0.030404353195003078 43.379122230114184
0.030661041023475763 43.129895457489596
0.03091935941151208 42.877079420456155
0.03123432131750241 42.599001928777426
P1  
0.01762951106897421 39.503973423372436
0.01797652170062064 39.477745496959585
0.018360789918473775 39.429083814217826
0.018710161692329804 39.35606226180122
0.018998906122786645 39.26947936878756
0.019330887762563555 39.236691045676906
0.01966973394155501 39.39489871742192
0.019963813040937684 39.48065515754601
0.02014825828373431 39.595375014845544
0.020316361423049642 39.790940406255935
0.020457295115504932 40.001095081733475
0.020596529436962933 40.186620095063944
0.020734658305134077 40.38345248656537
0.020871313501681588 40.5935866714754
0.020988368083323737 40.79280621409175
0.021083956743989656 41.023936400510394
0.02117050295429569 41.24882720912223
0.02125245524304252 41.45251028036118
0.021321703227502944 41.65022718136012
0.021375044435262665 41.885602330347936
0.02141230313905646 42.21885750523661
0.021439226982848968 42.53136598052137
0.02146579633866036 42.787607357423575
0.021481468954256587 43.032541356154816
0.02148112713226249 43.26000714608375
0.02146279822502816 43.52379588201881
0.021440649192248057 43.81028475166041
0.02141208403876848 44.09115237561509
0.021379364707640226 44.3619693762061
0.02132343740335531 44.65510060481554
0.021252278611063942 45.10939697708059
0.02118049152195452 45.34883267352998
0.021124666982463413 45.5372844229198
0.02107269449957778 45.7040127556544
0.02102728603141647 45.84919525665219
0.020988132804632173 45.974419944895196
0.020953925060374384 46.092701745846895
0.020922662158097526 46.210945980758154
0.020898311744843197 46.33244821590351
0.020904801892382745 46.45989613072136
0.020944534242153152 46.55443960921268
0.020998979519520473 46.64073904937579
0.02107010505029132 46.724627432761885
0.021192489138671312 46.84138951662326
0.021335309797099643 46.9261794849798
0.021461458291326237 46.98884647061466
0.02156092881092002 47.07382426917337
0.021661013950194617 47.1662708795895
0.021755190459745256 47.269212075665344
0.021816861203738606 47.53909675543464
0.02183429838291235 47.79772528345176
0.021822235680052197 48.00128882638024
0.021816121094993167 48.17797557492471
0.021778146709714605 48.34803362487969
0.021677888983062322 48.613133757135394
0.02152262346020765 48.92930662890987
0.021338425736342145 49.250359670846315
0.02109639974577085 49.66659822905606
0.020791533749018383 50.08006373046279
0.020477093224014538 50.50399991186714
0.020195366814732538 50.89542439282223
0.019943635378565094 51.26857470265295
0.019685337053877955 51.66388556124578
0.019387741865856293 52.099467215185
0.019064507793102932 52.580172513875915
0.018743749974029392 52.998873355281454
0.018455115173544187 53.419794008167244
0.01816534426595482 53.79201541227084
0.01788133271038531 54.240523199214316
0.017582171729632775 54.66976302250918
0.01731228290924003 55.060111748669996
0.01705403455666132 55.38859262132883
0.016820542141795146 55.76517851631207
0.016588730897222237 56.091753766192475
0.016373362764716137 56.38253199463284
0.016168850607105652 56.62758552167456
0.015988806688359794 56.85374333037744
0.01582391709089278 57.0721830253182
0.015677754660802217 57.303354192871865
0.015545617017362788 57.464266619528196
0.015424326541168338 57.66423406785866
0.015291351186377651 57.911876236595816
0.015135736843304964 58.26169803531636
0.014952033891209523 58.73636886187556
0.014763330801257055 59.21248085834964
0.014580961849008279 59.55684533592334
0.014407048826771112 59.81030682583335
0.014243493681507442 59.98955148022199
0.014092050758855675 60.12651043345909
0.013946419821253834 60.246933498715585
0.013804170170000612 60.358996412427985
0.013670539110898963 60.44728343763957
0.013545297166066502 60.510578800678076
0.013441583460995119 60.52625408482325
0.013362644932099741 60.372137696391086
0.013299508924995141 60.2293457616028
0.013236125345740991 60.07874009040402
0.013166216681046136 59.90980902166209
0.013120068849197447 59.7200527061408
0.01310787166335752 59.333341055713014
0.013120084176106103 58.96464061412656
0.013127445030425268 58.57943160531618
0.013135449189160542 58.195090030530395
0.013143158491168695 57.82692917388837
0.013149185904434741 57.52448156725103
0.01316455365823847 57.22325656447513
0.0131915533915162 56.86043691576405
0.013225638999470633 56.51703549486332
0.0132588131353259 56.15911992197631
0.01329169874744755 55.78703512165611
0.013323500087218616 55.42535269944184
0.013354142356131748 55.04414276639051
0.013385512999125881 54.67197600380027
0.013419342200670913 54.292965391661674
0.013452709625874238 53.839270076043576
0.01348828330103839 53.47544980461909
0.013531701639294616 53.096408456629234
0.013584012298711699 52.635845385800685
0.013635110110044469 52.216553733031944
0.013681380982909873 51.811424477507224
0.013725319850657659 51.41065971286214
0.01376661772706678 51.03858515782569
0.01380436271429061 50.685232151304255
0.013842160574027462 50.3471446175778
0.01388641449489763 49.94574123024532
0.013938268300678038 49.57335931669622
0.01399360362972531 49.21012644154036
0.014049117134085715 48.83747132042446
0.014104847264076972 48.46279104821966
0.014160215109586705 48.09457896515885
0.01421404986509254 47.717559353163324
0.014280337787100236 47.321261532235425
0.01435705213142292 46.770645832294846
0.014433246185736987 46.33813093329296
0.014497598899262283 45.954940245382325
0.014557605955217556 45.57611063325673
0.01461831685155629 45.21224255050806
0.014676352457276401 44.81577397485091
0.014732466664697432 44.47059670476598
0.014785380900970516 44.09808501762266
0.014850558952561438 43.71835382052662
0.014929482021502075 43.35520632273539
0.01500831807830503 42.99206565513332
0.01510912153337682 42.65622525364379
0.015216522264693454 42.0231828307995
0.015320890450051841 41.662057069002586
0.01540956614272934 41.39332327610843
0.015513089538684903 41.124671445484324
0.015616276540926512 40.87034252154973
0.015716306891824506 40.62295306981187
0.015813606125967834 40.37617150491014
0.01590730675629206 40.137862789673804
0.01605733585144791 40.025782800488486
0.016253905370831476 39.817287860979256
0.016453828343323287 39.67960149259556
0.016632675698825282 39.60484507212977
0.016817097951258922 39.596915222503384
0.016995918910418226 39.61399069542841
0.017163770220109384 39.60896367619929
0.017362359591892775 39.577182805991214
K1  
0.06003369614481922 45.51728904412458
0.06163487913353098 45.75220998553259
0.0634538895317486 45.973525190113925
0.06508526397602894 46.0853661226783
0.06638403492314471 46.08591936800107
0.0678109132817813 46.10643384117321
0.06924080273934768 46.314303818373375
0.07046473111425122 46.422207146881235
0.07122480933155327 46.55954859071185
0.07191960747752867 46.76976132279733
0.07249982527324125 46.99223424444299
0.07306490391492838 47.18561397531897
0.07361783087253565 47.388361310641635
0.07416104972362514 47.60122415612508
0.07463018234286983 47.79834341557165
0.07502072836671551 48.022018450511226
0.07537718841007773 48.238511541538536
0.07571078645331514 48.435917668930244
0.07599198882068901 48.62795868272891
0.07621317867721825 48.854249680120596
0.07637269922665182 49.170675268894364
0.0764882155827113 49.46635415806421
0.07659821148429594 49.70531515636628
0.07666763727154045 49.92065394542386
0.07667786989893227 50.112893034708456
0.07661852325711926 50.347356353442066
0.0765414022973605 50.613310259344026
0.07643411202090122 50.88016575021642
0.07630485658134728 51.13649250448324
0.07606873490980688 51.41118563742823
0.07575892252581455 51.8278510824611
0.0754419646092823 52.03392471990956
0.07519013455935881 52.18607742895535
0.07494916766881937 52.31529777786282
0.07472870456320893 52.42617565375422
0.0745266961199896 52.518243188671406
0.07433262573821198 52.59364506201376
0.07414275258779521 52.6496218773566
0.07397764516728259 52.696760427913446
0.07391864998000004 52.740866374478806
0.07397160381078716 52.75479313019646
0.07407941030604494 52.76533894227496
0.07421094008854452 52.769119451980565
0.07445299987282067 52.7209836938049
0.07475564884287966 52.59181115622162
0.07504357823303762 52.52351950980525
0.07527326707329063 52.46445544895756
0.07550404050520483 52.42370995546385
0.07570652003799161 52.39220229282258
0.0758016367043767 52.45313099531368
0.07576462072985507 52.56682290914313
0.07564932171787529 52.641111461650766
0.07554656054292401 52.673155294141885
0.07533576147896898 52.696179861834
0.0749256055269922 52.837684305963734
0.07434101934943875 53.04900011360017
0.07365436085632865 53.27500424304673
0.07277721273047578 53.57927892528704
0.07170414030551905 53.9318976864727
0.0706169085843222 54.30060495824833
0.06964242564780367 54.63503834076884
0.06877159454992834 54.958205326253406
0.06788339742592397 55.307309955111094
0.06686500694070538 55.716912984542176
0.0657630826745714 56.18272847084246
0.06467677397387364 56.58345566944711
0.06370827183127399 56.97801862232582
0.06273995595318926 57.32369449622016
0.06178901983158925 57.73856701659591
0.06078314259648319 58.13597474326393
0.05986960775085853 58.51257771372009
0.05898609076227457 58.82894524588592
0.058179123912538766 59.18991391333192
0.05737489355461935 59.50095389794513
0.0566269181668758 59.77957780475746
0.05591706857085224 60.01651023687603
0.05529251875621928 60.236558441366334
0.0547206559351512 60.450589249197854
0.05421346191849023 60.67899760523225
0.053753875941038094 60.848331655135205
0.05333050979035238 61.06167261386055
0.05286332964897152 61.32873984059722
0.05231065132788246 61.70523352802667
0.051651439283575296 62.21183548895568
0.05096888212221006 62.71905899709917
0.05030615180730816 63.09948687349054
0.04967411479779649 63.39513161171454
0.04908091276884075 63.61405966518096
0.04853222540446687 63.788762243771544
0.0480040073394775 63.95171006680054
0.04748769594090322 64.11004751213977
0.04700271902339796 64.24581801246129
0.046548741736582314 64.35445217121034
0.04616672449878281 64.41451002458226
0.04586786893861631 64.3154449608604
0.045623399530138255 64.2236540486046
0.04538062385150361 64.12559302269072
0.045115808291094614 64.00921342942287
0.044931115103619405 63.87192662710562
0.04486198510442459 63.54277298081354
0.044876097887754415 63.228331561993656
0.044874140513794736 62.899990708212805
0.04487408005765503 62.57256509978073
0.04487548640796113 62.25785047339406
0.04487426419343264 61.997954945285905
0.04490614831447599 61.737820360556796
0.04497722270233287 61.418556828182886
0.04507242685982156 61.11497541014333
0.04516473976629118 60.7953088966084
0.0452562298093523 60.4610326084388
0.04534433739525928 60.136072698297106
0.04542899451085496 59.792835201936455
0.04551660003406657 59.45616151736819
0.04561134268130572 59.11161945487606
0.045704653326954135 58.69740263266064
0.04580720822725974 58.36412355210987
0.04593751004764009 58.01499843268466
0.0460972967956747 57.587927194451275
0.0462533928453922 57.19777654377639
0.04639420360326764 56.82049396949782
0.04652738954339705 56.44564294256376
0.04665258292640955 56.09658612503026
0.04676721787878442 55.76404470490985
0.04688214351023943 55.44491094613017
0.0470185992973191 55.064817749008135
0.04718085836086951 54.71192919535025
0.047355946685586625 54.36714807623718
0.04753232779247417 54.012944711164074
0.04771034717559811 53.65657276102949
0.04788826831749504 53.305852792433086
0.04806225076317784 52.94622625715899
0.048278443834611315 52.56744104126301
0.04853079829897196 52.04102811664637
0.04878332966140335 51.62797925677902
0.0489983614001955 51.261081985133444
0.04919997443045886 50.89752126089742
0.049404874550444705 50.5469208206115
0.04960147089191842 50.16423556669944
0.04979220767106325 49.82968948605763
0.04997268606509478 49.467846554397866
0.05019568747707772 49.09843235804314
0.05046663880348202 48.752128106745154
0.050737939242805716 48.40500423274676
0.05108625707881788 48.08276615298932
0.05145810789295602 47.47360548657797
0.05182021356054711 47.12449061243653
0.05212884971073692 46.87299280191291
0.052489826721804446 46.62422023686812
0.052850153829370194 46.387984484044885
0.053199653540338745 46.15753390144865
0.053539506133113555 45.92661203579969
0.053866926154919996 45.70272526499585
0.05438877972108973 45.613222466112
0.0550668963364192 45.445493510663994
0.05574306249618526 45.330053068407025
0.056325783474104704 45.26545655433163
0.05692574349897245 45.2763507060578
0.0575275993772915 45.32963642686765
0.0581248221652848 45.3788240341755
0.05888860204390113 45.4284316981173
N2  
0.11222337207623882 172.96701386210756
0.11345986638750341 173.56849398079723
0.11490343149219233 174.2691621066138
0.11614668582166936 174.82550833526804
0.11705422678164065 175.1929998333714
0.11791685393878384 175.46001924878388
0.11871195903846186 175.65171533802945
0.11934650221041262 175.74370432577118
0.11972168811729968 175.81267557600998
0.1200737563627106 175.77516417708827
0.1203773856163024 175.72009919199962
0.12067056383405404 175.65849088568612
0.12096057789666304 175.58211571038703
0.12126006143433699 175.48591932611657
0.12156632989644996 175.3688362233642
0.12188070757048461 175.2003081357833
0.12219655833074017 175.0312336330688
0.12248378417321606 174.88305950921458
0.12274357208183825 174.73776772519005
0.12303294113704127 174.53833986180402
0.12335977724620265 174.21840014070227
0.12368002150739935 173.90143838207868
0.12400179824658794 173.6174254560112
0.12434530215603956 173.2733068652476
0.12469107678958338 172.8988758949475
0.12496978981154297 172.53035986846865
0.12519146140132623 172.18240271139152
0.12537030747958583 171.85489514068942
0.12553551537649962 171.5153391162914
0.12577214794499525 171.1088608984056
0.12605269380978168 170.37748424208064
0.1263325640133448 169.8821589234713
0.12658029113497044 169.40952349328475
0.1268473186663218 168.92156111860072
0.1270982269729886 168.4713970107835
0.12732517506395058 168.06919449131814
0.12756331222397932 167.6581946882018
0.12783551854746672 167.20464280655628
0.1281498819589614 166.73751250884075
0.12852549978664934 166.234496397226
0.12894275103296543 165.72783296459446
0.12933868042060298 165.25425496830243
0.12982746618134627 164.77099176376737
0.13054484597274224 163.89730128589602
0.13129430966717848 162.98671412612825
0.1318716802767344 162.50253567624438
0.13228657032762248 162.00271609316118
0.1326805957726069 161.55979198586422
0.13308098656790587 161.13361550241208
0.13343701107161376 160.50187764569927
0.1336881586483546 160.05279270777095
0.13383071337427405 159.6395799233635
0.133983917747225 159.16437634204902
0.1340737419469015 158.66028106054543
0.1340291453259331 158.19040502678357
0.1338526223387036 157.75340952368614
0.13360134916646133 157.32467854948445
0.1332108599799019 156.7896834921757
0.1326690252338136 156.4532420340392
0.13207609483173907 156.15364261628577
0.13152787515095293 155.8669385956853
0.13102172698293404 155.62170748372517
0.1304712793656757 155.421350714612
0.12979136279651088 155.32377463212921
0.1290202638932636 155.27719274198972
0.1282502408538545 155.2248734929474
0.12756450729710705 155.1644536395495
0.1268711907523018 155.112407598074
0.12617847621440878 155.0556897072062
0.1254035792180469 155.01362940229725
0.12465295365878507 155.07907627492432
0.12388527882950638 155.13522042990184