OceanMesh2D
Run_001
1        	 ! NFOVER 
0        	 ! NABOUT 
1800        	 ! NSCREEN 
0        	 ! IHOT 
1         	 ! ICS 
511112          	 ! IM 
1            	 ! NOLIBF 
2            	 ! NOLIFA 
1           	 ! NOLICA 
1           	 ! NOLICAT 
3           	 ! NWP 
primitive_weighting_in_continuity_equation
advection_state
quadratic_friction_coefficient_at_sea_floor
0   	 	 ! NCOR 
1   	 	 ! NTIP 
0   	 	 ! NWS 
0    	 	 ! NRAMP 
9.810000    	 ! G  
-3   	 	 ! TAU0 
2    	 	 ! DTDP 
0  	 	 ! STATIM 
0   	 	 ! REFTIM 
7.25   	 	 ! RNDY 
0   	 	 ! DRAMP 
0 1 0   	  ! A00, B00, C00 
0.1 0 0 0.01    	 ! H0, 2*dummy, VELMIN 
200.572682 -19.874421  	 	 ! SLAM0, SFEA0 
0.002500     	 ! CF 
-0.050000     	 	 ! ELSM 
0.000000   	 ! CORI 
8   	 	 ! NTIF 
Q1 
0.019303  6.495854130e-05 0.695000 1.160921 30.242619   	 !  TPK, AMIGT, ETRF, FFT, FACET 
O1 
0.100818  6.759774407e-05 0.695000 1.167196 319.273345   	 !  TPK, AMIGT, ETRF, FFT, FACET 
P1 
0.047037  7.252294576e-05 0.706000 0.989895 62.653969   	 !  TPK, AMIGT, ETRF, FFT, FACET 
K1 
0.141909  7.292115851e-05 0.736000 1.105292 293.976048   	 !  TPK, AMIGT, ETRF, FFT, FACET 
N2 
0.046510  1.378796998e-04 0.693000 0.968158 322.003118   	 !  TPK, AMIGT, ETRF, FFT, FACET 
M2 
0.242922  1.405189028e-04 0.693000 0.967167 251.633463   	 !  TPK, AMIGT, ETRF, FFT, FACET 
S2 
0.113308  1.454441043e-04 0.693000 1.002098 0.052091   	 !  TPK, AMIGT, ETRF, FFT, FACET 
K2 
0.030779  1.458423170e-04 0.693000 1.288421 47.677949   	 !  TPK, AMIGT, ETRF, FFT, FACET 
8   	 	 ! NBFR 
Q1  
 6.495854130e-05 1.160921 30.242619 
O1  
 6.759774407e-05 1.167196 319.273345 
P1  
 7.252294576e-05 0.989895 62.653969 
K1  
 7.292115851e-05 1.105292 293.976048 
N2  
 1.378796998e-04 0.968158 322.003118 
M2  
 1.405189028e-04 0.967167 251.633463 
S2  
 1.454441043e-04 1.002098 0.052091 
K2  
 1.458423170e-04 1.288421 47.677949 
Q1 
 4.969082266e-03  5.849395328e+01 
 4.950922308e-03  5.928976673e+01 
 4.931290708e-03  6.013437117e+01 
 4.910172961e-03  6.102698425e+01 
 4.887222270e-03  6.197204841e+01 
 4.864407313e-03  6.285417352e+01 
 4.844399569e-03  6.360119953e+01 
 4.824982580e-03  6.432192726e+01 
 4.803727466e-03  6.509706741e+01 
 4.785017736e-03  6.566066865e+01 
 4.763223184e-03  6.626488159e+01 
 4.743311123e-03  6.676795559e+01 
 4.725803360e-03  6.719465891e+01 
 4.708658082e-03  6.763364675e+01 
 4.692698209e-03  6.805007949e+01 
 4.672854880e-03  6.859939602e+01 
 4.652524166e-03  6.914631735e+01 
 4.632902534e-03  6.966793071e+01 
 4.616016994e-03  7.011446988e+01 
 4.599487280e-03  7.054902402e+01 
 4.584712606e-03  7.093526929e+01 
 4.570287208e-03  7.130785022e+01 
 4.559761653e-03  7.157049047e+01 
 4.549990416e-03  7.181808282e+01 
 4.540352455e-03  7.206611672e+01 
 4.530481676e-03  7.231764231e+01 
 4.520316106e-03  7.257938110e+01 
 4.510799616e-03  7.283798445e+01 
 4.509378052e-03  7.288386232e+01 
 4.509540852e-03  7.289632488e+01 
 4.510866452e-03  7.290443963e+01 
 4.512928564e-03  7.290876473e+01 
 4.522703245e-03  7.272109563e+01 
 4.532612714e-03  7.254314954e+01 
 4.543024946e-03  7.236029783e+01 
 4.553087861e-03  7.218723980e+01 
 4.563279792e-03  7.201337699e+01 
 4.572951169e-03  7.184802169e+01 
 4.582958853e-03  7.167401987e+01 
 4.604036743e-03  7.123340393e+01 
 4.625207347e-03  7.080390847e+01 
 4.643986129e-03  7.042976699e+01 
 4.663411294e-03  7.004683703e+01 
 4.679841968e-03  6.971898835e+01 
 4.721681372e-03  6.880169135e+01 
 4.744422783e-03  6.830143337e+01 
 4.766390523e-03  6.780356003e+01 
 4.792444820e-03  6.720155472e+01 
 4.819123737e-03  6.656251095e+01 
 4.840839138e-03  6.604356907e+01 
 4.857427565e-03  6.565873556e+01 
 4.871726567e-03  6.535542743e+01 
 4.883174288e-03  6.511561402e+01 
 4.894261627e-03  6.487069660e+01 
 4.905911645e-03  6.458568240e+01 
 4.920001899e-03  6.421994074e+01 
 4.931887208e-03  6.389939271e+01 
 4.942837336e-03  6.355874682e+01 
 4.951852133e-03  6.325872944e+01 
 4.963193513e-03  6.286261420e+01 
 4.973354948e-03  6.246540179e+01 
 4.979263164e-03  6.219194388e+01 
 4.985046913e-03  6.187901764e+01 
 4.988358887e-03  6.167285184e+01 
 4.990950056e-03  6.153085736e+01 
 4.992628160e-03  6.133927550e+01 
 4.993474748e-03  6.109987989e+01 
 4.992411574e-03  6.074845367e+01 
 4.988824344e-03  6.055556495e+01 
 4.984941826e-03  6.036885755e+01 
 4.979761060e-03  6.013784371e+01 
 4.974000726e-03  5.996406062e+01 
 4.968089986e-03  5.977677241e+01 
 4.962436685e-03  5.958543954e+01 
 4.956938395e-03  5.939367666e+01 
 4.951934189e-03  5.920235313e+01 
 4.945804835e-03  5.897403042e+01 
 4.939409472e-03  5.871096065e+01 
 4.934354649e-03  5.848169430e+01 
 4.928906635e-03  5.821879695e+01 
 4.927000688e-03  5.808975590e+01 
 4.925717001e-03  5.798304808e+01 
 4.924093673e-03  5.781544907e+01 
 4.922975691e-03  5.767794622e+01 
 4.922183140e-03  5.754066445e+01 
 4.921575632e-03  5.737374739e+01 
 4.921592406e-03  5.720734894e+01 
 4.922234299e-03  5.699851292e+01 
 4.922181195e-03  5.655802963e+01 
 4.922977030e-03  5.623807253e+01 
 4.924238124e-03  5.595029279e+01 
 4.925937543e-03  5.566993815e+01 
 4.927786080e-03  5.543896272e+01 
 4.929801561e-03  5.519556076e+01 
 4.932844962e-03  5.487919943e+01 
 4.935945618e-03  5.459709635e+01 
 4.939596192e-03  5.430599739e+01 
 4.943358663e-03  5.402710256e+01 
 4.947962820e-03  5.372418020e+01 
 4.952903471e-03  5.342995813e+01 
 4.962656009e-03  5.326018773e+01 
 4.973045341e-03  5.308925110e+01 
 4.983210785e-03  5.292602591e+01 
 4.991995882e-03  5.278356892e+01 
 5.000812501e-03  5.292343264e+01 
 5.008712914e-03  5.309892199e+01 
 5.017161171e-03  5.328492004e+01 
 5.023897677e-03  5.347590085e+01 
 5.025227691e-03  5.393863775e+01 
 5.025121897e-03  5.436887376e+01 
 5.023662339e-03  5.486549153e+01 
 5.018272277e-03  5.548617499e+01 
 5.012726603e-03  5.598960339e+01 
 5.004970282e-03  5.658164217e+01 
 4.994069676e-03  5.719746324e+01 
 4.969082266e-03  5.849395328e+01 
 4.969082266e-03  5.849395328e+01 
O1 
 2.512561574e-02  6.970168763e+01 
 2.490929221e-02  7.052769940e+01 
 2.468202197e-02  7.141428195e+01 
 2.444429145e-02  7.236367885e+01 
 2.419386760e-02  7.338263787e+01 
 2.396072673e-02  7.425514561e+01 
 2.375607363e-02  7.500041387e+01 
 2.355668856e-02  7.572424320e+01 
 2.334042961e-02  7.651111694e+01 
 2.315606156e-02  7.699701325e+01 
 2.293963606e-02  7.751283229e+01 
 2.273905254e-02  7.793028544e+01 
 2.256147222e-02  7.828107300e+01 
 2.238787680e-02  7.865134014e+01 
 2.222495204e-02  7.900331796e+01 
 2.202084261e-02  7.952470583e+01 
 2.181002496e-02  8.004144111e+01 
 2.160369407e-02  8.053165202e+01 
 2.142294564e-02  8.094700637e+01 
 2.124299827e-02  8.134568218e+01 
 2.107962819e-02  8.169711172e+01 
 2.091866976e-02  8.203360337e+01 
 2.078956148e-02  8.220675187e+01 
 2.066679812e-02  8.236230803e+01 
 2.054206137e-02  8.251113999e+01 
 2.041270730e-02  8.265622359e+01 
 2.027828745e-02  8.280670334e+01 
 2.014858306e-02  8.295111801e+01 
 2.006491919e-02  8.266588910e+01 
 2.001807459e-02  8.245104872e+01 
 1.996469300e-02  8.215190812e+01 
 1.993154243e-02  8.191529028e+01 
 1.997811627e-02  8.144176350e+01 
 2.002743745e-02  8.099092005e+01 
 2.008151995e-02  8.053461658e+01 
 2.013578617e-02  8.010831669e+01 
 2.019211926e-02  7.968619604e+01 
 2.024701946e-02  7.929265985e+01 
 2.030460910e-02  7.888667634e+01 
 2.046989571e-02  7.811005032e+01 
 2.063791832e-02  7.735538641e+01 
 2.078924527e-02  7.670064408e+01 
 2.094716702e-02  7.603233254e+01 
 2.108221610e-02  7.546406440e+01 
 2.147137396e-02  7.405778898e+01 
 2.168730343e-02  7.329620902e+01 
 2.190018136e-02  7.254309182e+01 
 2.215774914e-02  7.163829547e+01 
 2.243969698e-02  7.072464020e+01 
 2.267503323e-02  6.998488599e+01 
 2.285716407e-02  6.943619866e+01 
 2.301394260e-02  6.900168638e+01 
 2.314805436e-02  6.867982581e+01 
 2.328190682e-02  6.835356902e+01 
 2.342907451e-02  6.797552006e+01 
 2.361382419e-02  6.749153603e+01 
 2.377578371e-02  6.706731730e+01 
 2.395480345e-02  6.667712978e+01 
 2.411123419e-02  6.633606359e+01 
 2.431808009e-02  6.587059338e+01 
 2.452583565e-02  6.540589602e+01 
 2.466868278e-02  6.509749456e+01 
 2.483215954e-02  6.474644690e+01 
 2.494286106e-02  6.452399486e+01 
 2.502482010e-02  6.435884307e+01 
 2.513029887e-02  6.418451156e+01 
 2.525494633e-02  6.396969544e+01 
 2.542729768e-02  6.366020901e+01 
 2.550619336e-02  6.357750939e+01 
 2.557724437e-02  6.349570584e+01 
 2.565921132e-02  6.339207016e+01 
 2.569918180e-02  6.340475138e+01 
 2.573833713e-02  6.340429744e+01 
 2.577633596e-02  6.339289224e+01 
 2.581065459e-02  6.336838923e+01 
 2.584320192e-02  6.333322709e+01 
 2.587144802e-02  6.332068010e+01 
 2.590294710e-02  6.328741469e+01 
 2.592930490e-02  6.324281114e+01 
 2.595774194e-02  6.318002089e+01 
 2.594117881e-02  6.329673665e+01 
 2.592982979e-02  6.338018593e+01 
 2.591451833e-02  6.347910372e+01 
 2.590426938e-02  6.356225708e+01 
 2.589707511e-02  6.364664440e+01 
 2.589035545e-02  6.372883944e+01 
 2.588817157e-02  6.379623578e+01 
 2.589014806e-02  6.388025265e+01 
 2.594801409e-02  6.375864271e+01 
 2.599458857e-02  6.366411507e+01 
 2.603916654e-02  6.357293114e+01 
 2.608525028e-02  6.348027287e+01 
 2.612426396e-02  6.339568087e+01 
 2.616576578e-02  6.330624292e+01 
 2.622318535e-02  6.318162192e+01 
 2.627621178e-02  6.306695911e+01 
 2.633249604e-02  6.294320612e+01 
 2.638707673e-02  6.282034871e+01 
 2.644761508e-02  6.267876588e+01 
 2.650821060e-02  6.253618525e+01 
 2.653973489e-02  6.257215854e+01 
 2.657408955e-02  6.260319176e+01 
 2.660852568e-02  6.262028773e+01 
 2.663771641e-02  6.262612229e+01 
 2.659898729e-02  6.289394009e+01 
 2.655574181e-02  6.319661192e+01 
 2.651319616e-02  6.353415729e+01 
 2.646892409e-02  6.386125042e+01 
 2.635141283e-02  6.441873653e+01 
 2.623945369e-02  6.494136396e+01 
 2.610962278e-02  6.554837668e+01 
 2.594662518e-02  6.627267771e+01 
 2.581248296e-02  6.686552121e+01 
 2.565063140e-02  6.757004996e+01 
 2.548023034e-02  6.824999067e+01 
 2.512561574e-02  6.970168763e+01 
 2.512561574e-02  6.970168763e+01 
P1 
 8.511265538e-03  6.983378303e+01 
 8.293631643e-03  7.095189324e+01 
 8.067662247e-03  7.218759902e+01 
 7.834200551e-03  7.355325804e+01 
 7.591998306e-03  7.507048491e+01 
 7.367805371e-03  7.610125113e+01 
 7.172724060e-03  7.701207231e+01 
 6.983195610e-03  7.792518851e+01 
 6.779190620e-03  7.895533308e+01 
 6.606222796e-03  7.926104923e+01 
 6.405687408e-03  7.956468924e+01 
 6.221071260e-03  7.976236997e+01 
 6.057674763e-03  7.990769442e+01 
 5.896713747e-03  8.009436853e+01 
 5.744744528e-03  8.026935947e+01 
 5.555026235e-03  8.082090376e+01 
 5.359148038e-03  8.136412340e+01 
 5.166964148e-03  8.187879999e+01 
 4.997922404e-03  8.230573547e+01 
 4.829199809e-03  8.270165708e+01 
 4.675497003e-03  8.304347519e+01 
 4.524088801e-03  8.336207750e+01 
 4.397867625e-03  8.320323315e+01 
 4.277262386e-03  8.299694310e+01 
 4.154229530e-03  8.273189160e+01 
 4.026970674e-03  8.240398443e+01 
 3.895180029e-03  8.202972525e+01 
 3.767490114e-03  8.160233504e+01 
 3.672655263e-03  7.936090453e+01 
 3.620221546e-03  7.776148362e+01 
 3.561901793e-03  7.554869348e+01 
 3.526300109e-03  7.379001721e+01 
 3.567426881e-03  7.159204825e+01 
 3.614019248e-03  6.954826490e+01 
 3.668168564e-03  6.755383757e+01 
 3.724749974e-03  6.575914422e+01 
 3.785863124e-03  6.405050535e+01 
 3.846956003e-03  6.252674932e+01 
 3.913031495e-03  6.101501133e+01 
 4.086892177e-03  5.896960232e+01 
 4.264373554e-03  5.711786788e+01 
 4.424919253e-03  5.561201553e+01 
 4.593603797e-03  5.415936672e+01 
 4.739416021e-03  5.298727315e+01 
 5.142663685e-03  5.084715905e+01 
 5.367044089e-03  4.977814229e+01 
 5.589966890e-03  4.876676941e+01 
 5.860977755e-03  4.760909656e+01 
 6.150672714e-03  4.663656132e+01 
 6.391447789e-03  4.588861892e+01 
 6.576009721e-03  4.536264475e+01 
 6.731075407e-03  4.498243579e+01 
 6.858559016e-03  4.478520270e+01 
 6.986523872e-03  4.458063092e+01 
 7.130329556e-03  4.432105116e+01 
 7.312222479e-03  4.397973618e+01 
 7.472639412e-03  4.367775414e+01 
 7.641699128e-03  4.355955109e+01 
 7.790436852e-03  4.344957664e+01 
 7.991241295e-03  4.324374850e+01 
 8.195313966e-03  4.303167673e+01 
 8.336318846e-03  4.290902265e+01 
 8.499868322e-03  4.276477490e+01 
 8.610535628e-03  4.269407142e+01 
 8.693341440e-03  4.262223114e+01 
 8.798217071e-03  4.264000299e+01 
 8.925926283e-03  4.264739094e+01 
 9.110181056e-03  4.263679123e+01 
 9.196259164e-03  4.281897734e+01 
 9.277719681e-03  4.297723722e+01 
 9.376426998e-03  4.315099792e+01 
 9.428900380e-03  4.348285359e+01 
 9.484329024e-03  4.380069284e+01 
 9.540569038e-03  4.409580876e+01 
 9.595484441e-03  4.435507260e+01 
 9.649111251e-03  4.458338683e+01 
 9.702177104e-03  4.492921804e+01 
 9.763126906e-03  4.528181287e+01 
 9.815431255e-03  4.554894821e+01 
 9.874051100e-03  4.582522241e+01 
 9.858717445e-03  4.637591325e+01 
 9.848082708e-03  4.680610063e+01 
 9.834422433e-03  4.740575067e+01 
 9.824415860e-03  4.791925802e+01 
 9.816035759e-03  4.845108333e+01 
 9.807916507e-03  4.905028248e+01 
 9.803193815e-03  4.961925612e+01 
 9.799728693e-03  5.035216378e+01 
 9.877415429e-03  5.092637019e+01 
 9.936019244e-03  5.133324307e+01 
 9.990017869e-03  5.168520674e+01 
 1.004393242e-02  5.201999696e+01 
 1.008834677e-02  5.227377401e+01 
 1.013515941e-02  5.254003699e+01 
 1.019879748e-02  5.286145710e+01 
 1.025622551e-02  5.313925371e+01 
 1.031572756e-02  5.341163296e+01 
 1.037268341e-02  5.366038558e+01 
 1.043441614e-02  5.390706807e+01 
 1.049496921e-02  5.413338678e+01 
 1.049123002e-02  5.475845342e+01 
 1.048908426e-02  5.538119941e+01 
 1.048921993e-02  5.593886620e+01 
 1.048962214e-02  5.639696440e+01 
 1.039611234e-02  5.715630547e+01 
 1.029967641e-02  5.795997271e+01 
 1.020133338e-02  5.888446039e+01 
 1.010919986e-02  5.974808583e+01 
 9.940399192e-03  6.078072628e+01 
 9.786527800e-03  6.175384840e+01 
 9.614440594e-03  6.289188171e+01 
 9.413824196e-03  6.414821058e+01 
 9.254431001e-03  6.518829967e+01 
 9.068408113e-03  6.644448313e+01 
 8.884017973e-03  6.750546801e+01 
 8.511265538e-03  6.983378303e+01 
 8.511265538e-03  6.983378303e+01 
K1 
 2.955992256e-02  7.410546091e+01 
 2.884901566e-02  7.517952105e+01 
 2.811018492e-02  7.635989182e+01 
 2.734574267e-02  7.765588304e+01 
 2.655096134e-02  7.908650012e+01 
 2.579379704e-02  8.007409471e+01 
 2.513443226e-02  8.094182597e+01 
 2.449321350e-02  8.180687440e+01 
 2.380238610e-02  8.277685337e+01 
 2.319918489e-02  8.308829756e+01 
 2.250060992e-02  8.340002701e+01 
 2.185808905e-02  8.361126125e+01 
 2.128983749e-02  8.377062774e+01 
 2.073070216e-02  8.396664269e+01 
 2.020312196e-02  8.414998528e+01 
 1.955334580e-02  8.467524880e+01 
 1.888309845e-02  8.519283819e+01 
 1.822615182e-02  8.568291388e+01 
 1.764898299e-02  8.609019599e+01 
 1.707357056e-02  8.646868401e+01 
 1.654979748e-02  8.679592186e+01 
 1.603448835e-02  8.710192048e+01 
 1.560128762e-02  8.698582578e+01 
 1.518778315e-02  8.682774994e+01 
 1.476618617e-02  8.662049063e+01 
 1.433073920e-02  8.636188705e+01 
 1.388029038e-02  8.606673094e+01 
 1.344435969e-02  8.572835679e+01 
 1.310358940e-02  8.382198510e+01 
 1.291084084e-02  8.246220440e+01 
 1.269013912e-02  8.058285970e+01 
 1.254904018e-02  7.909075294e+01 
 1.265522579e-02  7.718309009e+01 
 1.277784672e-02  7.540083891e+01 
 1.292237685e-02  7.365066964e+01 
 1.307541183e-02  7.206726898e+01 
 1.324182836e-02  7.054980492e+01 
 1.340925413e-02  6.918802651e+01 
 1.359073397e-02  6.782872811e+01 
 1.410764316e-02  6.591473689e+01 
 1.463483116e-02  6.415919443e+01 
 1.511119807e-02  6.271328336e+01 
 1.561102474e-02  6.130050085e+01 
 1.604242310e-02  6.014780458e+01 
 1.726586598e-02  5.792371239e+01 
 1.794648583e-02  5.679028506e+01 
 1.862197524e-02  5.570494473e+01 
 1.944233710e-02  5.444642774e+01 
 2.032950521e-02  5.334098451e+01 
 2.106785213e-02  5.247697570e+01 
 2.163559968e-02  5.185993171e+01 
 2.211504102e-02  5.140096933e+01 
 2.251614528e-02  5.113387452e+01 
 2.291790011e-02  5.085899078e+01 
 2.336779453e-02  5.052011905e+01 
 2.393658910e-02  5.007769720e+01 
 2.443839217e-02  4.968644182e+01 
 2.498330236e-02  4.946524253e+01 
 2.546309160e-02  4.926493014e+01 
 2.610701022e-02  4.894127797e+01 
 2.676251181e-02  4.861011228e+01 
 2.721849371e-02  4.840434783e+01 
 2.774835543e-02  4.816397718e+01 
 2.810971520e-02  4.802827191e+01 
 2.837806573e-02  4.790858915e+01 
 2.872963226e-02  4.786425186e+01 
 2.915794996e-02  4.779618951e+01 
 2.977658195e-02  4.767821611e+01 
 3.008656590e-02  4.781130697e+01 
 3.037926694e-02  4.792531186e+01 
 3.073325179e-02  4.804782196e+01 
 3.094646353e-02  4.835797933e+01 
 3.116804027e-02  4.865485644e+01 
 3.138972082e-02  4.893051354e+01 
 3.160336484e-02  4.917227942e+01 
 3.180949870e-02  4.938507804e+01 
 3.202438799e-02  4.972097398e+01 
 3.226621691e-02  5.006314846e+01 
 3.247041975e-02  5.032256196e+01 
 3.269680623e-02  5.059090235e+01 
 3.268886655e-02  5.116605988e+01 
 3.268652195e-02  5.161345687e+01 
 3.268671621e-02  5.223581255e+01 
 3.269123697e-02  5.276548936e+01 
 3.270128604e-02  5.331090767e+01 
 3.271692560e-02  5.392355243e+01 
 3.274124015e-02  5.450265474e+01 
 3.278040650e-02  5.524480510e+01 
 3.308702519e-02  5.580710352e+01 
 3.331622359e-02  5.620410895e+01 
 3.352584660e-02  5.654637211e+01 
 3.373400476e-02  5.687132523e+01 
 3.390434096e-02  5.711642238e+01 
 3.408386801e-02  5.737363475e+01 
 3.432540548e-02  5.768204129e+01 
 3.454259877e-02  5.794760250e+01 
 3.476715756e-02  5.820720800e+01 
 3.498143368e-02  5.844331968e+01 
 3.521292274e-02  5.867645635e+01 
 3.543920555e-02  5.888909328e+01 
 3.547222917e-02  5.950525062e+01 
 3.551141102e-02  6.011525823e+01 
 3.555445954e-02  6.065876866e+01 
 3.559166059e-02  6.110343326e+01 
 3.532477440e-02  6.185492060e+01 
 3.504991352e-02  6.264593865e+01 
 3.477624277e-02  6.354873235e+01 
 3.451847712e-02  6.438774432e+01 
 3.400389538e-02  6.539972750e+01 
 3.353519837e-02  6.634815703e+01 
 3.301199298e-02  6.745094587e+01 
 3.239298527e-02  6.866606464e+01 
 3.190102840e-02  6.966625101e+01 
 3.132684368e-02  7.086775033e+01 
 3.074212776e-02  7.188675382e+01 
 2.955992256e-02  7.410546091e+01 
 2.955992256e-02  7.410546091e+01 
N2 
 8.192568221e-02  1.641606127e+02 
 8.073602342e-02  1.641559172e+02 
 7.946981222e-02  1.641522428e+02 
 7.811658406e-02  1.641454519e+02 
 7.665846892e-02  1.641305488e+02 
 7.503445513e-02  1.643740215e+02 
 7.360500271e-02  1.645605004e+02 
 7.219762857e-02  1.647286411e+02 
 7.064299783e-02  1.648922062e+02 
 6.910590217e-02  1.652179350e+02 
 6.732480826e-02  1.655396735e+02 
 6.570843604e-02  1.657900093e+02 
 6.425451261e-02  1.659878176e+02 
 6.274666291e-02  1.661807799e+02 
 6.127818522e-02  1.663591123e+02 
 5.956477756e-02  1.664601037e+02 
 5.778638793e-02  1.665472197e+02 
 5.602434195e-02  1.666215604e+02 
 5.446544640e-02  1.666863040e+02 
 5.289917624e-02  1.667559443e+02 
 5.146166978e-02  1.668250165e+02 
 5.003121056e-02  1.668994610e+02 
 4.871436112e-02  1.670951479e+02 
 4.743160913e-02  1.673157716e+02 
 4.609202716e-02  1.675765118e+02 
 4.467450772e-02  1.678861113e+02 
 4.315415695e-02  1.682589581e+02 
 4.162207709e-02  1.687091302e+02 
 3.984336811e-02  1.698513676e+02 
 3.870987447e-02  1.707297624e+02 
 3.722516075e-02  1.720703574e+02 
 3.608961600e-02  1.732699774e+02 
 3.548540419e-02  1.745639962e+02 
 3.492980452e-02  1.758915360e+02 
 3.440235469e-02  1.773075164e+02 
 3.394895175e-02  1.786934859e+02 
 3.354094076e-02  1.801103608e+02 
 3.320023726e-02  1.814575872e+02 
 3.288287559e-02  1.828678714e+02 
 3.309903865e-02  1.844465785e+02 
 3.333321963e-02  1.860245885e+02 
 3.355330512e-02  1.874300613e+02 
 3.378914990e-02  1.888822778e+02 
 3.399646535e-02  1.901084140e+02 
 3.525246462e-02  1.918074760e+02 
 3.595175536e-02  1.926842379e+02 
 3.664037045e-02  1.934956981e+02 
 3.746647908e-02  1.944122789e+02 
 3.852723850e-02  1.949249862e+02 
 3.941897417e-02  1.953040620e+02 
 4.013653580e-02  1.955605242e+02 
 4.078169277e-02  1.957711506e+02 
 4.142651297e-02  1.957682259e+02 
 4.202916078e-02  1.957729424e+02 
 4.267085211e-02  1.957619901e+02 
 4.346724939e-02  1.957088928e+02 
 4.416836661e-02  1.956444735e+02 
 4.519027634e-02  1.950956252e+02 
 4.607927481e-02  1.946212245e+02 
 4.719930759e-02  1.941294920e+02 
 4.833058678e-02  1.936416983e+02 
 4.915490119e-02  1.932389064e+02 
 5.012673678e-02  1.927778050e+02 
 5.085585046e-02  1.924296276e+02 
 5.136891230e-02  1.922707498e+02 
 5.227591632e-02  1.917746507e+02 
 5.333979662e-02  1.911875417e+02 
 5.486001700e-02  1.903601596e+02 
 5.601898284e-02  1.895495482e+02 
 5.711268477e-02  1.888306355e+02 
 5.844150342e-02  1.880076014e+02 
 5.971178901e-02  1.871032413e+02 
 6.099235508e-02  1.862444384e+02 
 6.222737339e-02  1.854686985e+02 
 6.339225806e-02  1.847718034e+02 
 6.447980788e-02  1.841430667e+02 
 6.581244194e-02  1.833505426e+02 
 6.724116453e-02  1.825458399e+02 
 6.839780062e-02  1.819144322e+02 
 6.963300641e-02  1.812508883e+02 
 7.053964270e-02  1.805740637e+02 
 7.123739076e-02  1.800540998e+02 
 7.222720254e-02  1.792996709e+02 
 7.301217825e-02  1.787102484e+02 
 7.377669074e-02  1.781434933e+02 
 7.464045953e-02  1.774947397e+02 
 7.544901540e-02  1.768909526e+02 
 7.643174951e-02  1.761588121e+02 
 7.790701099e-02  1.753750766e+02 
 7.892038318e-02  1.748425606e+02 
 7.979623416e-02  1.743862771e+02 
 8.062144105e-02  1.739592307e+02 
 8.126823894e-02  1.736213040e+02 
 8.192860467e-02  1.732711853e+02 
 8.275471623e-02  1.728438676e+02 
 8.347044064e-02  1.724743590e+02 
 8.417801857e-02  1.721051488e+02 
 8.483721632e-02  1.717590817e+02 
 8.552986934e-02  1.713948163e+02 
 8.618928021e-02  1.710505025e+02 
 8.668993371e-02  1.704992002e+02 
 8.718539362e-02  1.699433068e+02 
 8.764429235e-02  1.694302480e+02 
 8.801915598e-02  1.689935453e+02 
 8.795210757e-02  1.685075023e+02 
 8.787057834e-02  1.680356706e+02 
 8.783659209e-02  1.675032775e+02 
 8.778318646e-02  1.670245490e+02 
 8.727927788e-02  1.666162394e+02 
 8.681881340e-02  1.662406073e+02 
 8.630608307e-02  1.658179198e+02 
 8.560902998e-02  1.654367131e+02 
 8.504407178e-02  1.651302398e+02 
 8.438243591e-02  1.647626980e+02 
 8.358244254e-02  1.645639767e+02 
 8.192568221e-02  1.641606127e+02 
 8.192568221e-02  1.641606127e+02 
M2 
 2.937733482e-01  1.848060275e+02 
 2.885901869e-01  1.846000301e+02 
 2.830762717e-01  1.843984776e+02 
 2.771759349e-01  1.842010487e+02 
 2.708080075e-01  1.840018913e+02 
 2.642112399e-01  1.843092268e+02 
 2.583898462e-01  1.845592717e+02 
 2.526697403e-01  1.848027898e+02 
 2.463443486e-01  1.850663158e+02 
 2.404709701e-01  1.856994668e+02 
 2.336648023e-01  1.863864248e+02 
 2.275374291e-01  1.869825160e+02 
 2.220541859e-01  1.875091493e+02 
 2.163709699e-01  1.880684922e+02 
 2.108758793e-01  1.886289921e+02 
 2.043192928e-01  1.890973484e+02 
 1.975853993e-01  1.895869605e+02 
 1.909806034e-01  1.900814145e+02 
 1.852136984e-01  1.905373218e+02 
 1.794958885e-01  1.910166153e+02 
 1.743015556e-01  1.914737784e+02 
 1.691714941e-01  1.919420271e+02 
 1.647747501e-01  1.926228310e+02 
 1.605536118e-01  1.933291376e+02 
 1.561890798e-01  1.941057554e+02 
 1.515988552e-01  1.949673266e+02 
 1.466759535e-01  1.959364025e+02 
 1.417626408e-01  1.970020384e+02 
 1.372111033e-01  1.992151549e+02 
 1.344394981e-01  2.007759188e+02 
 1.308985614e-01  2.029955747e+02 
 1.282599795e-01  2.048555894e+02 
 1.278525745e-01  2.067086043e+02 
 1.275693716e-01  2.085240938e+02 
 1.274131985e-01  2.103755550e+02 
 1.274151533e-01  2.121116234e+02 
 1.275566510e-01  2.138170006e+02 
 1.278154282e-01  2.153806824e+02 
 1.281847576e-01  2.169646745e+02 
 1.312580201e-01  2.186161277e+02 
 1.344011930e-01  2.202169807e+02 
 1.372558403e-01  2.216058930e+02 
 1.402662232e-01  2.230047056e+02 
 1.428732853e-01  2.241557589e+02 
 1.515807196e-01  2.255715071e+02 
 1.564817789e-01  2.262674425e+02 
 1.613695147e-01  2.268840059e+02 
 1.673330862e-01  2.275469984e+02 
 1.741804076e-01  2.278030961e+02 
 1.800185335e-01  2.279544873e+02 
 1.847447005e-01  2.280281726e+02 
 1.890046510e-01  2.280767245e+02 
 1.928205493e-01  2.279547797e+02 
 1.964688536e-01  2.278581126e+02 
 2.003946506e-01  2.277417278e+02 
 2.053086882e-01  2.275568051e+02 
 2.096748549e-01  2.273754696e+02 
 2.149142918e-01  2.267628249e+02 
 2.194864512e-01  2.262352880e+02 
 2.255425966e-01  2.256527984e+02 
 2.317006594e-01  2.250734072e+02 
 2.360381384e-01  2.246174506e+02 
 2.411554387e-01  2.240895889e+02 
 2.448760502e-01  2.236901077e+02 
 2.477174041e-01  2.234729675e+02 
 2.518856419e-01  2.229288821e+02 
 2.567495038e-01  2.222975024e+02 
 2.636469686e-01  2.214151048e+02 
 2.678375690e-01  2.206141770e+02 
 2.718138538e-01  2.198952499e+02 
 2.766647728e-01  2.190613890e+02 
 2.804208867e-01  2.181729243e+02 
 2.842452549e-01  2.173138850e+02 
 2.879868537e-01  2.165241110e+02 
 2.915417212e-01  2.158017077e+02 
 2.948641018e-01  2.151414888e+02 
 2.986036035e-01  2.143025180e+02 
 3.026533838e-01  2.134303224e+02 
 3.059293458e-01  2.127320563e+02 
 3.093994904e-01  2.119882295e+02 
 3.104422000e-01  2.112080353e+02 
 3.112013076e-01  2.105898477e+02 
 3.121746118e-01  2.096639742e+02 
 3.128999431e-01  2.089179861e+02 
 3.135768821e-01  2.081805620e+02 
 3.142926337e-01  2.073113575e+02 
 3.149686220e-01  2.064792558e+02 
 3.157653298e-01  2.054436133e+02 
 3.190338753e-01  2.043501177e+02 
 3.212976377e-01  2.036021645e+02 
 3.232811819e-01  2.029586933e+02 
 3.251703026e-01  2.023558273e+02 
 3.266544639e-01  2.018779943e+02 
 3.281478997e-01  2.013843290e+02 
 3.300864365e-01  2.007852740e+02 
 3.317759539e-01  2.002678842e+02 
 3.334356812e-01  1.997522508e+02 
 3.349828802e-01  1.992688470e+02 
 3.366256601e-01  1.987589187e+02 
 3.382075788e-01  1.982764211e+02 
 3.378996149e-01  1.974035155e+02 
 3.376316624e-01  1.965173361e+02 
 3.374677442e-01  1.956934138e+02 
 3.373112286e-01  1.949881862e+02 
 3.348491692e-01  1.941022736e+02 
 3.324679338e-01  1.932274019e+02 
 3.301692993e-01  1.922416214e+02 
 3.281018154e-01  1.913446144e+02 
 3.243234158e-01  1.904805486e+02 
 3.209663448e-01  1.896832479e+02 
 3.173246098e-01  1.887817415e+02 
 3.130867328e-01  1.879183590e+02 
 3.097326714e-01  1.872260992e+02 
 3.058740849e-01  1.864008716e+02 
 3.018953295e-01  1.858715430e+02 
 2.937733482e-01  1.848060275e+02 
 2.937733482e-01  1.848060275e+02 
S2 
 2.120256468e-02  2.132929581e+02 
 2.073828083e-02  2.141028606e+02 
 2.022140670e-02  2.151071737e+02 
 1.962719608e-02  2.163360100e+02 
 1.893925192e-02  2.178199299e+02 
 1.815951368e-02  2.233787716e+02 
 1.758595718e-02  2.283465840e+02 
 1.713731521e-02  2.333633271e+02 
 1.674473930e-02  2.390113941e+02 
 1.680742973e-02  2.472096702e+02 
 1.717568923e-02  2.559899505e+02 
 1.776713587e-02  2.631779829e+02 
 1.845819108e-02  2.690288574e+02 
 1.930826535e-02  2.745987394e+02 
 2.026488662e-02  2.794927455e+02 
 2.117844724e-02  2.840929271e+02 
 2.221732843e-02  2.883357650e+02 
 2.332133498e-02  2.920637300e+02 
 2.436163126e-02  2.949834256e+02 
 2.545767189e-02  2.975854720e+02 
 2.649344290e-02  2.997197484e+02 
 2.753642886e-02  3.016390717e+02 
 2.885969103e-02  3.031955592e+02 
 3.017338919e-02  3.045254236e+02 
 3.155206449e-02  3.057598221e+02 
 3.300394170e-02  3.069297280e+02 
 3.453987379e-02  3.080772841e+02 
 3.610624093e-02  3.091000658e+02 
 3.901573099e-02  3.097498253e+02 
 4.093184950e-02  3.100373253e+02 
 4.348818165e-02  3.103246010e+02 
 4.549373691e-02  3.104896023e+02 
 4.751497507e-02  3.102887245e+02 
 4.945987344e-02  3.100890500e+02 
 5.141524768e-02  3.098753310e+02 
 5.323010608e-02  3.096603047e+02 
 5.500132189e-02  3.094340109e+02 
 5.662051535e-02  3.092130676e+02 
 5.825821372e-02  3.089800777e+02 
 6.039837872e-02  3.084168357e+02 
 6.254618517e-02  3.078894277e+02 
 6.446921117e-02  3.074475506e+02 
 6.646764828e-02  3.070167215e+02 
 6.816814071e-02  3.066682784e+02 
 7.153893474e-02  3.057270993e+02 
 7.339932488e-02  3.052369400e+02 
 7.522106706e-02  3.047720587e+02 
 7.740545629e-02  3.042354978e+02 
 7.940788458e-02  3.036584956e+02 
 8.106523491e-02  3.031804035e+02 
 8.233479375e-02  3.027932431e+02 
 8.342630607e-02  3.024414773e+02 
 8.420411302e-02  3.021322699e+02 
 8.497983682e-02  3.018582997e+02 
 8.582620795e-02  3.015771988e+02 
 8.685326059e-02  3.012294330e+02 
 8.774388453e-02  3.009222211e+02 
 8.826760172e-02  3.005426505e+02 
 8.871051059e-02  3.002187746e+02 
 8.942464433e-02  2.998010162e+02 
 9.013171344e-02  2.993883768e+02 
 9.053452976e-02  2.991043096e+02 
 9.099006900e-02  2.987706286e+02 
 9.125827231e-02  2.985171848e+02 
 9.157677506e-02  2.983221708e+02 
 9.164087419e-02  2.980137868e+02 
 9.168407149e-02  2.976846087e+02 
 9.168639423e-02  2.972513528e+02 
 9.108737705e-02  2.969643380e+02 
 9.052193308e-02  2.966953754e+02 
 8.982810795e-02  2.963667440e+02 
 8.865409726e-02  2.960695360e+02 
 8.746353963e-02  2.957593149e+02 
 8.632205171e-02  2.954497260e+02 
 8.523594550e-02  2.951414812e+02 
 8.420422018e-02  2.948424570e+02 
 8.271715741e-02  2.944554662e+02 
 8.111328294e-02  2.940071436e+02 
 7.978442874e-02  2.936154178e+02 
 7.831651293e-02  2.931721295e+02 
 7.628163667e-02  2.927464887e+02 
 7.465547264e-02  2.923827199e+02 
 7.221951205e-02  2.917947216e+02 
 7.021854748e-02  2.912822892e+02 
 6.821278192e-02  2.907379654e+02 
 6.585016864e-02  2.900389129e+02 
 6.358304252e-02  2.893007991e+02 
 6.073246345e-02  2.882909261e+02 
 5.789557141e-02  2.869517772e+02 
 5.591238783e-02  2.859318462e+02 
 5.418601644e-02  2.849706947e+02 
 5.254989759e-02  2.839940301e+02 
 5.124881289e-02  2.831634924e+02 
 4.988773114e-02  2.822614154e+02 
 4.822658615e-02  2.810719743e+02 
 4.678301672e-02  2.799581394e+02 
 4.533629530e-02  2.787702187e+02 
 4.398067589e-02  2.775708945e+02 
 4.256197047e-02  2.761989262e+02 
 4.122790362e-02  2.747873523e+02 