OceanMesh2D
Run_001
1        	 ! NFOVER 
0        	 ! NABOUT 
1800        	 ! NSCREEN 
0        	 ! IHOT 
1         	 ! ICS 
511112          	 ! IM 
1            	 ! NOLIBF 
2            	 ! NOLIFA 
1           	 ! NOLICA 
1           	 ! NOLICAT 
3           	 ! NWP 
primitive_weighting_in_continuity_equation
advection_state
quadratic_friction_coefficient_at_sea_floor
0   	 	 ! NCOR 
1   	 	 ! NTIP 
0   	 	 ! NWS 
0    	 	 ! NRAMP 
9.810000    	 ! G  
-3   	 	 ! TAU0 
2    	 	 ! DTDP 
0  	 	 ! STATIM 
0   	 	 ! REFTIM 
7.25   	 	 ! RNDY 
0   	 	 ! DRAMP 
0 1 0   	  ! A00, B00, C00 
0.1 0 0 0.01    	 ! H0, 2*dummy, VELMIN 
188.160484 -13.927419  	 	 ! SLAM0, SFEA0 
0.002500     	 ! CF 
-0.050000     	 	 ! ELSM 
0.000000   	 ! CORI 
8   	 	 ! NTIF 
Q1 
0.019303  6.495854130e-05 0.695000 1.148539 31.363941   	 !  TPK, AMIGT, ETRF, FFT, FACET 
O1 
0.100818  6.759774407e-05 0.695000 1.167986 319.321122   	 !  TPK, AMIGT, ETRF, FFT, FACET 
P1 
0.047037  7.252294576e-05 0.706000 0.990011 62.666673   	 !  TPK, AMIGT, ETRF, FFT, FACET 
K1 
0.141909  7.292115851e-05 0.736000 1.105360 293.953851   	 !  TPK, AMIGT, ETRF, FFT, FACET 
N2 
0.046510  1.378796998e-04 0.693000 0.968158 322.003118   	 !  TPK, AMIGT, ETRF, FFT, FACET 
M2 
0.242922  1.405189028e-04 0.693000 0.967092 251.614592   	 !  TPK, AMIGT, ETRF, FFT, FACET 
S2 
0.113308  1.454441043e-04 0.693000 1.002086 0.050790   	 !  TPK, AMIGT, ETRF, FFT, FACET 
K2 
0.030779  1.458423170e-04 0.693000 1.288792 47.650823   	 !  TPK, AMIGT, ETRF, FFT, FACET 
8   	 	 ! NBFR 
Q1  
 6.495854130e-05 1.148539 31.363941 
O1  
 6.759774407e-05 1.167986 319.321122 
P1  
 7.252294576e-05 0.990011 62.666673 
K1  
 7.292115851e-05 1.105360 293.953851 
N2  
 1.378796998e-04 0.968158 322.003118 
M2  
 1.405189028e-04 0.967092 251.614592 
S2  
 1.454441043e-04 1.002086 0.050790 
K2  
 1.458423170e-04 1.288792 47.650823 
Q1 
 5.737177574e-03  4.599481985e+01 
 5.698646276e-03  4.644326438e+01 
 5.657734109e-03  4.693803827e+01 
 5.625408497e-03  4.732328112e+01 
 5.591825374e-03  4.773966449e+01 
 5.562098866e-03  4.812029841e+01 
 5.530521022e-03  4.853996295e+01 
 5.500112749e-03  4.895852920e+01 
 5.472367412e-03  4.934928648e+01 
 5.440863059e-03  4.980166910e+01 
 5.400739479e-03  5.035301284e+01 
 5.377643154e-03  5.064081013e+01 
 5.356519337e-03  5.091015994e+01 
 5.345029860e-03  5.097960367e+01 
 5.333820592e-03  5.105202048e+01 
 5.321905392e-03  5.114220184e+01 
 5.303643810e-03  5.130404512e+01 
 5.289659325e-03  5.143191684e+01 
 5.282508024e-03  5.143218607e+01 
 5.276145120e-03  5.140580027e+01 
 5.270051587e-03  5.138689178e+01 
 5.264797037e-03  5.135929818e+01 
 5.260032338e-03  5.130644761e+01 
 5.255126078e-03  5.125362038e+01 
 5.250396687e-03  5.120409812e+01 
 5.245889323e-03  5.116263197e+01 
 5.242689269e-03  5.111180018e+01 
 5.244350871e-03  5.091806284e+01 
 5.246075726e-03  5.070148130e+01 
 5.247783250e-03  5.046995870e+01 
 5.249541208e-03  5.023031401e+01 
 5.251147488e-03  4.999112323e+01 
 5.253271140e-03  4.973076873e+01 
 5.255973332e-03  4.945087100e+01 
 5.258066458e-03  4.918321173e+01 
 5.259916651e-03  4.890202174e+01 
 5.261083635e-03  4.866004556e+01 
 5.262046780e-03  4.839920821e+01 
 5.269584257e-03  4.796368277e+01 
 5.276016152e-03  4.756451739e+01 
 5.281946258e-03  4.717822796e+01 
 5.287053261e-03  4.682241434e+01 
 5.291868684e-03  4.646753968e+01 
 5.298269695e-03  4.611580675e+01 
 5.305344441e-03  4.571901964e+01 
 5.311569077e-03  4.535842297e+01 
 5.318260131e-03  4.495420506e+01 
 5.324327813e-03  4.457507461e+01 
 5.334262154e-03  4.415697236e+01 
 5.345004591e-03  4.370516286e+01 
 5.356061198e-03  4.323585955e+01 
 5.367268961e-03  4.275514508e+01 
 5.380615508e-03  4.226241781e+01 
 5.395791952e-03  4.176151957e+01 
 5.410204931e-03  4.127059917e+01 
 5.423545925e-03  4.079640128e+01 
 5.434952828e-03  4.035550435e+01 
 5.449568709e-03  3.996674833e+01 
 5.473680697e-03  3.925767457e+01 
 5.487289484e-03  3.886751246e+01 
 5.504048360e-03  3.846446452e+01 
 5.531864976e-03  3.792339257e+01 
 5.566506226e-03  3.738561581e+01 
 5.613882837e-03  3.683046021e+01 
 5.675579125e-03  3.626702166e+01 
 5.748958486e-03  3.568580254e+01 
 5.832641580e-03  3.510965619e+01 
 5.924310270e-03  3.454737778e+01 
 6.012504699e-03  3.403170120e+01 
 6.092147181e-03  3.360024078e+01 
 6.158575730e-03  3.323816265e+01 
 6.226188081e-03  3.284218088e+01 
 6.291281440e-03  3.243977021e+01 
 6.353187405e-03  3.205703786e+01 
 6.412756648e-03  3.170072328e+01 
 6.466046433e-03  3.139261525e+01 
 6.524112046e-03  3.106856740e+01 
 6.585542794e-03  3.074670995e+01 
 6.646045293e-03  3.050411554e+01 
 6.710477841e-03  3.025118887e+01 
 6.786538474e-03  2.995600983e+01 
 6.860239109e-03  2.968928026e+01 
 6.923054553e-03  2.949834332e+01 
 6.978815671e-03  2.935708907e+01 
 7.024895586e-03  2.931159953e+01 
 7.062182915e-03  2.939076408e+01 
 7.100624348e-03  2.953055389e+01 
 7.129521730e-03  2.970889231e+01 
 7.139728736e-03  2.997566948e+01 
 7.160722833e-03  3.014764986e+01 
 7.188317558e-03  3.034494296e+01 
 7.212569442e-03  3.062729794e+01 
 7.223145635e-03  3.089412271e+01 
 7.223643401e-03  3.115141713e+01 
 7.223273930e-03  3.139004132e+01 
 7.221486511e-03  3.163207658e+01 
 7.202948551e-03  3.193737361e+01 
 7.180552529e-03  3.226941537e+01 
 7.155129286e-03  3.261837212e+01 
 7.126708224e-03  3.298235517e+01 
 7.089603882e-03  3.336287580e+01 
 7.055165326e-03  3.371036689e+01 
 7.017643270e-03  3.408842682e+01 
 6.974164102e-03  3.452831485e+01 
 6.933392397e-03  3.491770399e+01 
 6.878216367e-03  3.539847307e+01 
 6.826530665e-03  3.585212027e+01 
 6.777563279e-03  3.628198401e+01 
 6.728592970e-03  3.671576437e+01 
 6.675758778e-03  3.718968206e+01 
 6.617594475e-03  3.769425512e+01 
 6.549536083e-03  3.826372599e+01 
 6.483076089e-03  3.883572442e+01 
 6.426911362e-03  3.933286989e+01 
 6.365352236e-03  3.988675408e+01 
 6.311929353e-03  4.037349633e+01 
 6.255030620e-03  4.087538043e+01 
 6.196628597e-03  4.140198172e+01 
 6.150787035e-03  4.182542302e+01 
 6.103145818e-03  4.227526399e+01 
 6.052845476e-03  4.276171862e+01 
 6.000609380e-03  4.327841706e+01 
 5.950408526e-03  4.378309812e+01 
 5.910261883e-03  4.417743507e+01 
 5.866955546e-03  4.461168878e+01 
 5.828669774e-03  4.500353932e+01 
 5.796991907e-03  4.533530258e+01 
 5.767487850e-03  4.565543857e+01 
 5.737177574e-03  4.599481985e+01 
 5.737177574e-03  4.599481985e+01 
O1 
 2.939092045e-02  6.011879633e+01 
 2.915773059e-02  6.056514627e+01 
 2.890994596e-02  6.105582662e+01 
 2.872762417e-02  6.141579468e+01 
 2.854056588e-02  6.180232601e+01 
 2.837586682e-02  6.215637356e+01 
 2.820165183e-02  6.254923254e+01 
 2.803425370e-02  6.294187354e+01 
 2.788036959e-02  6.330501212e+01 
 2.770364722e-02  6.371968212e+01 
 2.749129600e-02  6.418595967e+01 
 2.738053097e-02  6.439845812e+01 
 2.728031835e-02  6.459467161e+01 
 2.725203642e-02  6.457687971e+01 
 2.722425789e-02  6.456801629e+01 
 2.719201248e-02  6.458020796e+01 
 2.713793078e-02  6.463351540e+01 
 2.709772889e-02  6.467869238e+01 
 2.710004583e-02  6.460932694e+01 
 2.711145700e-02  6.451389339e+01 
 2.712123033e-02  6.443400272e+01 
 2.713441218e-02  6.435127357e+01 
 2.715686659e-02  6.424025001e+01 
 2.718141611e-02  6.412720037e+01 
 2.720884811e-02  6.401641688e+01 
 2.723945561e-02  6.391305367e+01 
 2.727745740e-02  6.380908417e+01 
 2.736162445e-02  6.357310153e+01 
 2.744698555e-02  6.331169726e+01 
 2.752932547e-02  6.303553415e+01 
 2.760873978e-02  6.275211390e+01 
 2.768408310e-02  6.247125013e+01 
 2.776285973e-02  6.217339232e+01 
 2.784520242e-02  6.186229620e+01 
 2.792036522e-02  6.156705475e+01 
 2.799741003e-02  6.125929370e+01 
 2.806165760e-02  6.099666744e+01 
 2.812836706e-02  6.071728909e+01 
 2.825223604e-02  6.029630395e+01 
 2.836322176e-02  5.991331297e+01 
 2.846837729e-02  5.954556282e+01 
 2.856346588e-02  5.920940392e+01 
 2.865690369e-02  5.887609503e+01 
 2.875417928e-02  5.855658419e+01 
 2.886354472e-02  5.819882675e+01 
 2.896262347e-02  5.787584038e+01 
 2.907405931e-02  5.751571264e+01 
 2.917787723e-02  5.717973769e+01 
 2.930278591e-02  5.682023142e+01 
 2.943752685e-02  5.643267462e+01 
 2.957637582e-02  5.603121334e+01 
 2.971707192e-02  5.562095353e+01 
 2.986491958e-02  5.520568827e+01 
 3.001842787e-02  5.478919142e+01 
 3.016709615e-02  5.438475267e+01 
 3.030934973e-02  5.399742409e+01 
 3.043750682e-02  5.364319252e+01 
 3.056221096e-02  5.334046707e+01 
 3.076960107e-02  5.280459552e+01 
 3.088480721e-02  5.250676999e+01 
 3.101864729e-02  5.218589270e+01 
 3.122846440e-02  5.172975278e+01 
 3.147986688e-02  5.124726495e+01 
 3.180667215e-02  5.071506451e+01 
 3.221977699e-02  5.014422350e+01 
 3.271863202e-02  4.953609874e+01 
 3.329834958e-02  4.892101564e+01 
 3.394287299e-02  4.832006156e+01 
 3.456407780e-02  4.778424315e+01 
 3.508641589e-02  4.734410417e+01 
 3.548302298e-02  4.697583136e+01 
 3.586571541e-02  4.658565237e+01 
 3.621503906e-02  4.620366984e+01 
 3.653804083e-02  4.585753928e+01 
 3.684685845e-02  4.554584167e+01 
 3.712160647e-02  4.527944672e+01 
 3.741963344e-02  4.499383887e+01 
 3.772510609e-02  4.469903035e+01 
 3.797308033e-02  4.444688807e+01 
 3.823730825e-02  4.417319848e+01 
 3.854689483e-02  4.383806395e+01 
 3.884865820e-02  4.352747814e+01 
 3.910697092e-02  4.331896275e+01 
 3.933895586e-02  4.317649640e+01 
 3.950478700e-02  4.311342684e+01 
 3.960665919e-02  4.316169917e+01 
 3.972459906e-02  4.327823687e+01 
 3.980001984e-02  4.343946819e+01 
 3.975456111e-02  4.367796265e+01 
 3.976690151e-02  4.382296537e+01 
 3.978542926e-02  4.397528597e+01 
 3.975530751e-02  4.419877113e+01 
 3.966658151e-02  4.443060431e+01 
 3.955298697e-02  4.467627049e+01 
 3.944299299e-02  4.490763207e+01 
 3.931898268e-02  4.513777658e+01 
 3.911918960e-02  4.543012004e+01 
 3.890189463e-02  4.575738245e+01 
 3.867142089e-02  4.610894787e+01 
 3.842526463e-02  4.648171706e+01 
 3.814117089e-02  4.687238938e+01 
 3.788034913e-02  4.723222603e+01 
 3.759856251e-02  4.762642754e+01 
 3.727437070e-02  4.808837818e+01 
 3.697969417e-02  4.849797603e+01 
 3.660167385e-02  4.900089405e+01 
 3.624838671e-02  4.947896999e+01 
 3.591427322e-02  4.993427327e+01 
 3.558077424e-02  5.039660888e+01 
 3.522245119e-02  5.090410383e+01 
 3.483882793e-02  5.144281880e+01 
 3.440727653e-02  5.204487436e+01 
 3.398647862e-02  5.265134539e+01 
 3.363111406e-02  5.317942485e+01 
 3.324028469e-02  5.376951631e+01 
 3.290065502e-02  5.429010130e+01 
 3.255291626e-02  5.481993732e+01 
 3.219585453e-02  5.537673936e+01 
 3.191529244e-02  5.582503304e+01 
 3.162287552e-02  5.630029186e+01 
 3.131294375e-02  5.681438421e+01 
 3.099023765e-02  5.736038253e+01 
 3.068106035e-02  5.788899704e+01 
 3.043992050e-02  5.828874005e+01 
 3.017810141e-02  5.872712037e+01 
 2.994556242e-02  5.912256399e+01 
 2.975324347e-02  5.945711721e+01 
 2.957438257e-02  5.977875973e+01 
 2.939092045e-02  6.011879633e+01 
 2.939092045e-02  6.011879633e+01 
P1 
 1.154820175e-02  7.249959785e+01 
 1.139803770e-02  7.287856237e+01 
 1.123765286e-02  7.329271305e+01 
 1.111945971e-02  7.349094712e+01 
 1.099827801e-02  7.369270048e+01 
 1.089117309e-02  7.387886034e+01 
 1.077845760e-02  7.409392434e+01 
 1.066999148e-02  7.431288348e+01 
 1.056913049e-02  7.450658746e+01 
 1.045159085e-02  7.471252280e+01 
 1.030976798e-02  7.475105105e+01 
 1.023670199e-02  7.459198828e+01 
 1.017080748e-02  7.443008798e+01 
 1.015739711e-02  7.398080583e+01 
 1.014556314e-02  7.356567340e+01 
 1.013144847e-02  7.318098754e+01 
 1.010698985e-02  7.267847166e+01 
 1.009024761e-02  7.229725295e+01 
 1.010514226e-02  7.185515233e+01 
 1.012890481e-02  7.137883960e+01 
 1.015123520e-02  7.095696228e+01 
 1.017599613e-02  7.056126622e+01 
 1.021018574e-02  7.011553942e+01 
 1.024736880e-02  6.966039700e+01 
 1.028738317e-02  6.921078151e+01 
 1.033043393e-02  6.877627473e+01 
 1.037888033e-02  6.838433880e+01 
 1.046905741e-02  6.787150957e+01 
 1.056222548e-02  6.732592513e+01 
 1.065394197e-02  6.677085713e+01 
 1.074375597e-02  6.621859946e+01 
 1.083049163e-02  6.568274162e+01 
 1.092120962e-02  6.514328630e+01 
 1.101548204e-02  6.460999311e+01 
 1.110399320e-02  6.410900926e+01 
 1.119656105e-02  6.359000752e+01 
 1.127580430e-02  6.314896638e+01 
 1.135968779e-02  6.268837376e+01 
 1.149318832e-02  6.216920973e+01 
 1.161449994e-02  6.170160054e+01 
 1.173055824e-02  6.125739941e+01 
 1.183685573e-02  6.085442430e+01 
 1.194235962e-02  6.045828154e+01 
 1.204606772e-02  6.012627418e+01 
 1.216308053e-02  5.976035619e+01 
 1.226976539e-02  5.943297894e+01 
 1.239046095e-02  5.907109324e+01 
 1.250334812e-02  5.873758240e+01 
 1.262687714e-02  5.844515810e+01 
 1.275940557e-02  5.813279138e+01 
 1.289530306e-02  5.781116354e+01 
 1.303210276e-02  5.748429445e+01 
 1.316828027e-02  5.718691085e+01 
 1.330301125e-02  5.692037597e+01 
 1.343342472e-02  5.666418864e+01 
 1.355842092e-02  5.642206969e+01 
 1.367201955e-02  5.620450997e+01 
 1.376681839e-02  5.609133055e+01 
 1.392644102e-02  5.591212382e+01 
 1.401237902e-02  5.580592169e+01 
 1.410584250e-02  5.567389826e+01 
 1.424350186e-02  5.545602888e+01 
 1.440011128e-02  5.519668013e+01 
 1.459152303e-02  5.490370413e+01 
 1.482185252e-02  5.459637881e+01 
 1.509675513e-02  5.425858367e+01 
 1.541345539e-02  5.391578071e+01 
 1.576416269e-02  5.358844977e+01 
 1.610298503e-02  5.330936357e+01 
 1.637818925e-02  5.311812959e+01 
 1.657877116e-02  5.296934884e+01 
 1.677080711e-02  5.281222519e+01 
 1.694498486e-02  5.266418223e+01 
 1.710637792e-02  5.255210369e+01 
 1.726204315e-02  5.246936446e+01 
 1.740102276e-02  5.240531876e+01 
 1.755209596e-02  5.232974196e+01 
 1.770385566e-02  5.224423692e+01 
 1.780548586e-02  5.219337924e+01 
 1.791466383e-02  5.211981625e+01 
 1.804152268e-02  5.199962756e+01 
 1.816661652e-02  5.189037901e+01 
 1.827567096e-02  5.188402589e+01 
 1.837613368e-02  5.194515986e+01 
 1.843484123e-02  5.206668425e+01 
 1.845151440e-02  5.230823679e+01 
 1.848041463e-02  5.265399682e+01 
 1.848966879e-02  5.301891596e+01 
 1.842468769e-02  5.341812625e+01 
 1.839249169e-02  5.373565732e+01 
 1.835172082e-02  5.409194111e+01 
 1.827054354e-02  5.454025284e+01 
 1.816534481e-02  5.496574760e+01 
 1.805949483e-02  5.537790595e+01 
 1.795934950e-02  5.576888865e+01 
 1.784921819e-02  5.615556639e+01 
 1.770066895e-02  5.655220268e+01 
 1.754413594e-02  5.699094604e+01 
 1.738179618e-02  5.746115616e+01 
 1.721154581e-02  5.795962088e+01 
 1.702314892e-02  5.844166406e+01 
 1.685127181e-02  5.888804472e+01 
 1.666661133e-02  5.938065159e+01 
 1.645502330e-02  5.996217983e+01 
 1.626499994e-02  6.046494398e+01 
 1.602580874e-02  6.104216142e+01 
 1.580250942e-02  6.159533620e+01 
 1.559192552e-02  6.212666540e+01 
 1.538194654e-02  6.267121608e+01 
 1.515688635e-02  6.327337618e+01 
 1.491820984e-02  6.388793351e+01 
 1.465278517e-02  6.452491240e+01 
 1.439395533e-02  6.517237258e+01 
 1.417523528e-02  6.574017952e+01 
 1.393429438e-02  6.638107401e+01 
 1.372475818e-02  6.695141293e+01 
 1.351272286e-02  6.747842118e+01 
 1.329492794e-02  6.803670348e+01 
 1.312357990e-02  6.848846568e+01 
 1.294419970e-02  6.896972861e+01 
 1.275334463e-02  6.949358675e+01 
 1.255409437e-02  7.005381328e+01 
 1.236219544e-02  7.058244507e+01 
 1.221169730e-02  7.092651199e+01 
 1.204714749e-02  7.130310432e+01 
 1.190032121e-02  7.164364997e+01 
 1.177876046e-02  7.193261423e+01 
 1.166521188e-02  7.220870670e+01 
 1.154820175e-02  7.249959785e+01 
 1.154820175e-02  7.249959785e+01 
K1 
 4.068678233e-02  7.489893760e+01 
 4.018032065e-02  7.527252347e+01 
 3.963740699e-02  7.568197129e+01 
 3.923260335e-02  7.589490576e+01 
 3.881492507e-02  7.611464195e+01 
 3.844453657e-02  7.631885034e+01 
 3.805368419e-02  7.655289301e+01 
 3.767628379e-02  7.679106707e+01 
 3.732400013e-02  7.700496610e+01 
 3.691172492e-02  7.723799715e+01 
 3.640279915e-02  7.734425932e+01 
 3.613048374e-02  7.725101276e+01 
 3.588251816e-02  7.715308585e+01 
 3.580830342e-02  7.678691221e+01 
 3.574000201e-02  7.644968355e+01 
 3.566368901e-02  7.614085706e+01 
 3.553957566e-02  7.574361019e+01 
 3.545036492e-02  7.544307291e+01 
 3.547201994e-02  7.507263715e+01 
 3.552229265e-02  7.466903164e+01 
 3.557021625e-02  7.431233512e+01 
 3.562831427e-02  7.397602696e+01 
 3.571599516e-02  7.359333179e+01 
 3.581265450e-02  7.320167734e+01 
 3.591873062e-02  7.281373776e+01 
 3.603529192e-02  7.243729582e+01 
 3.617333075e-02  7.209385779e+01 
 3.645165768e-02  7.162854792e+01 
 3.673843302e-02  7.112977310e+01 
 3.702000296e-02  7.061887285e+01 
 3.729524695e-02  7.010761504e+01 
 3.756083850e-02  6.960926142e+01 
 3.784016093e-02  6.910412968e+01 
 3.813260354e-02  6.860107346e+01 
 3.840672487e-02  6.812745347e+01 
 3.869341674e-02  6.763524427e+01 
 3.893852068e-02  6.721612062e+01 
 3.919832174e-02  6.677736018e+01 
 3.963079147e-02  6.626975110e+01 
 4.002368461e-02  6.581219793e+01 
 4.039987210e-02  6.537671388e+01 
 4.074451761e-02  6.498108373e+01 
 4.108674673e-02  6.459169105e+01 
 4.142856571e-02  6.426097228e+01 
 4.181497679e-02  6.389594120e+01 
 4.216776486e-02  6.356899111e+01 
 4.256754175e-02  6.320650695e+01 
 4.294227829e-02  6.287245424e+01 
 4.336026207e-02  6.257345946e+01 
 4.380967037e-02  6.225422094e+01 
 4.427154916e-02  6.192616949e+01 
 4.473802357e-02  6.159362655e+01 
 4.520750086e-02  6.128875838e+01 
 4.567733241e-02  6.101330080e+01 
 4.613388473e-02  6.074917123e+01 
 4.657387154e-02  6.049985984e+01 
 4.697706602e-02  6.027659754e+01 
 4.732745959e-02  6.015520283e+01 
 4.791962001e-02  5.995777731e+01 
 4.824678710e-02  5.984447485e+01 
 4.860848030e-02  5.970887630e+01 
 4.914015362e-02  5.948881511e+01 
 4.974112695e-02  5.922847821e+01 
 5.046597600e-02  5.893047496e+01 
 5.133351152e-02  5.861542426e+01 
 5.236806061e-02  5.827160588e+01 
 5.356151920e-02  5.792819536e+01 
 5.488266331e-02  5.760710692e+01 
 5.615398303e-02  5.733943550e+01 
 5.717711243e-02  5.715624254e+01 
 5.790953099e-02  5.700827682e+01 
 5.859676791e-02  5.684979234e+01 
 5.920719515e-02  5.669915087e+01 
 5.976397367e-02  5.658498756e+01 
 6.029502778e-02  5.649995074e+01 
 6.076457513e-02  5.643292596e+01 
 6.126908969e-02  5.635213801e+01 
 6.176637554e-02  5.625735358e+01 
 6.206963980e-02  5.618440091e+01 
 6.239055273e-02  5.608478024e+01 
 6.275655414e-02  5.593137578e+01 
 6.311464865e-02  5.578669480e+01 
 6.342893769e-02  5.574521917e+01 
 6.372015123e-02  5.577338378e+01 
 6.386780845e-02  5.585800667e+01 
 6.387268845e-02  5.604136288e+01 
 6.392288738e-02  5.631885070e+01 
 6.391677031e-02  5.663642094e+01 
 6.366501587e-02  5.698946129e+01 
 6.351484420e-02  5.726239197e+01 
 6.332310320e-02  5.756310608e+01 
 6.299255664e-02  5.794632946e+01 
 6.259406533e-02  5.832077795e+01 
 6.220826939e-02  5.869242660e+01 
 6.184420551e-02  5.904587951e+01 
 6.144589961e-02  5.939419467e+01 
 6.093570218e-02  5.975790673e+01 
 6.040326168e-02  6.016302332e+01 
 5.985470345e-02  6.060011979e+01 
 5.928201851e-02  6.106566640e+01 
 5.865728644e-02  6.151913048e+01 
 5.808823707e-02  6.193976572e+01 
 5.747773609e-02  6.240383119e+01 
 5.677906283e-02  6.295160370e+01 
 5.615426539e-02  6.342605468e+01 
 5.537339175e-02  6.397223852e+01 
 5.464437096e-02  6.449597588e+01 
 5.395681593e-02  6.499843636e+01 
 5.327132306e-02  6.551332080e+01 
 5.253685967e-02  6.608202580e+01 
 5.176005390e-02  6.666343988e+01 
 5.089929596e-02  6.726810189e+01 
 5.005897702e-02  6.788215773e+01 
 4.934768255e-02  6.842005868e+01 
 4.856262465e-02  6.902682588e+01 
 4.787888238e-02  6.956660451e+01 
 4.718769829e-02  7.006872042e+01 
 4.647645538e-02  7.060043726e+01 
 4.591518951e-02  7.103077445e+01 
 4.532661765e-02  7.148907776e+01 
 4.469888037e-02  7.198800442e+01 
 4.404203303e-02  7.252139896e+01 
 4.340760507e-02  7.302629847e+01 
 4.290776754e-02  7.336056090e+01 
 4.235960604e-02  7.372731802e+01 
 4.186883990e-02  7.406009855e+01 
 4.146158479e-02  7.434280504e+01 
 4.108031267e-02  7.461340762e+01 
 4.068678233e-02  7.489893760e+01 
 4.068678233e-02  7.489893760e+01 
N2 
 1.068556964e-01  1.511440234e+02 
 1.061411513e-01  1.512735269e+02 
 1.053626204e-01  1.514206787e+02 
 1.047177510e-01  1.516247014e+02 
 1.040321345e-01  1.518553023e+02 
 1.034090665e-01  1.520682648e+02 
 1.027336750e-01  1.522986926e+02 
 1.020675053e-01  1.525278148e+02 
 1.014390026e-01  1.527472286e+02 
 1.006988538e-01  1.530107016e+02 
 9.969076067e-02  1.534686516e+02 
 9.907250321e-02  1.538261820e+02 
 9.849369615e-02  1.541701760e+02 
 9.814450459e-02  1.545329828e+02 
 9.781233843e-02  1.548804702e+02 
 9.746434569e-02  1.552285903e+02 
 9.693724653e-02  1.557323014e+02 
 9.653349177e-02  1.561261577e+02 
 9.633546666e-02  1.564531153e+02 
 9.617311010e-02  1.567885163e+02 
 9.602483855e-02  1.570971105e+02 
 9.590731334e-02  1.573829204e+02 
 9.581830826e-02  1.576905412e+02 
 9.573564321e-02  1.580124477e+02 
 9.566692983e-02  1.583412536e+02 
 9.561404283e-02  1.586765633e+02 
 9.561422845e-02  1.589829417e+02 
 9.582359073e-02  1.592775989e+02 
 9.604640276e-02  1.595731259e+02 
 9.627159673e-02  1.598555337e+02 
 9.650023554e-02  1.601226999e+02 
 9.672531941e-02  1.603745261e+02 
 9.697673901e-02  1.606140078e+02 
 9.725940153e-02  1.608347119e+02 
 9.752159808e-02  1.610403330e+02 
 9.779483651e-02  1.612547515e+02 
 9.802667417e-02  1.614381080e+02 
 9.827217928e-02  1.616267412e+02 
 9.879103270e-02  1.617565299e+02 
 9.925764467e-02  1.618743962e+02 
 9.970091118e-02  1.619862751e+02 
 1.001040844e-01  1.620889009e+02 
 1.004999425e-01  1.621920784e+02 
 1.009189659e-01  1.622532911e+02 
 1.013894476e-01  1.623232403e+02 
 1.018154749e-01  1.623902525e+02 
 1.022933429e-01  1.624706481e+02 
 1.027374574e-01  1.625487223e+02 
 1.032643795e-01  1.625766975e+02 
 1.038230574e-01  1.626071873e+02 
 1.043881366e-01  1.626382908e+02 
 1.049481292e-01  1.626674938e+02 
 1.055162688e-01  1.626595810e+02 
 1.060828048e-01  1.626177683e+02 
 1.066142407e-01  1.625790711e+02 
 1.071071871e-01  1.625457066e+02 
 1.075342395e-01  1.625166267e+02 
 1.079223394e-01  1.624077259e+02 
 1.085245009e-01  1.621841261e+02 
 1.088423573e-01  1.620602470e+02 
 1.092070294e-01  1.619387724e+02 
 1.097785836e-01  1.617906265e+02 
 1.104596452e-01  1.616663547e+02 
 1.113327169e-01  1.615417043e+02 
 1.124067503e-01  1.614123606e+02 
 1.136588356e-01  1.613139543e+02 
 1.150573413e-01  1.612527816e+02 
 1.165560558e-01  1.612237716e+02 
 1.179586204e-01  1.612041290e+02 
 1.191081112e-01  1.610980315e+02 
 1.199604587e-01  1.609208966e+02 
 1.207657884e-01  1.606929251e+02 
 1.214870920e-01  1.604330206e+02 
 1.221382632e-01  1.601684420e+02 
 1.227453860e-01  1.599149997e+02 
 1.232657773e-01  1.596876147e+02 
 1.238166235e-01  1.594446612e+02 
 1.243654871e-01  1.591745113e+02 
 1.247838268e-01  1.587983456e+02 
 1.252126260e-01  1.584055915e+02 
 1.256981843e-01  1.579452825e+02 
 1.261528384e-01  1.575083564e+02 
 1.265361263e-01  1.571299127e+02 
 1.268759948e-01  1.567918559e+02 
 1.271084143e-01  1.564533717e+02 
 1.272500713e-01  1.560964104e+02 
 1.274463735e-01  1.557492433e+02 
 1.275882635e-01  1.554481285e+02 
 1.275391937e-01  1.551522877e+02 
 1.275705168e-01  1.548274182e+02 
 1.276166025e-01  1.544170662e+02 
 1.275952263e-01  1.539393488e+02 
 1.274716435e-01  1.535208720e+02 
 1.273094077e-01  1.531872582e+02 
 1.271554865e-01  1.528750001e+02 
 1.269826589e-01  1.525557602e+02 
 1.266917099e-01  1.523241461e+02 
 1.263776469e-01  1.521002117e+02 
 1.260417557e-01  1.518814628e+02 
 1.256756802e-01  1.516641147e+02 
 1.252420728e-01  1.514994804e+02 
 1.248386756e-01  1.513513769e+02 
 1.243980502e-01  1.511943249e+02 
 1.238861841e-01  1.510159988e+02 
 1.234133295e-01  1.508797884e+02 
 1.227856172e-01  1.507705647e+02 
 1.221861781e-01  1.506680363e+02 
 1.216085662e-01  1.505705962e+02 
 1.210211839e-01  1.504727258e+02 
 1.203807349e-01  1.503689052e+02 
 1.196738264e-01  1.502956195e+02 
 1.188452482e-01  1.502798804e+02 
 1.180173435e-01  1.502665302e+02 
 1.173011870e-01  1.502569350e+02 
 1.164960399e-01  1.502440985e+02 
 1.157775484e-01  1.502311976e+02 
 1.150052528e-01  1.502793426e+02 
 1.141931599e-01  1.503289935e+02 
 1.135409931e-01  1.503696399e+02 
 1.128480972e-01  1.504130186e+02 
 1.120982383e-01  1.504594288e+02 
 1.113010481e-01  1.505086255e+02 
 1.105131569e-01  1.505724217e+02 
 1.098612623e-01  1.506721617e+02 
 1.091376345e-01  1.507822944e+02 
 1.084812532e-01  1.508809893e+02 
 1.079272016e-01  1.509655851e+02 
 1.074026716e-01  1.510506605e+02 
 1.068556964e-01  1.511440234e+02 
 1.068556964e-01  1.511440234e+02 
M2 
 3.983416818e-01  1.609456907e+02 
 3.949037475e-01  1.611831610e+02 
 3.911712448e-01  1.614521020e+02 
 3.878357726e-01  1.618392974e+02 
 3.842896614e-01  1.622784922e+02 
 3.810919879e-01  1.626847976e+02 
 3.776551432e-01  1.631248451e+02 
 3.742963799e-01  1.635627359e+02 
 3.711623462e-01  1.639822503e+02 
 3.675177977e-01  1.644857110e+02 
 3.624244178e-01  1.653798481e+02 
 3.592220996e-01  1.660915613e+02 
 3.562834913e-01  1.667778941e+02 
 3.543017032e-01  1.675244348e+02 
 3.524819860e-01  1.682406223e+02 
 3.506647952e-01  1.689561653e+02 
 3.480600031e-01  1.699879966e+02 
 3.461475880e-01  1.707932237e+02 
 3.451533175e-01  1.714756589e+02 
 3.443412960e-01  1.721795585e+02 
 3.436414888e-01  1.728261782e+02 
 3.431079467e-01  1.734266448e+02 
 3.427205520e-01  1.740766278e+02 
 3.424070289e-01  1.747561304e+02 
 3.422060278e-01  1.754489843e+02 
 3.421274753e-01  1.761530483e+02 
 3.422926501e-01  1.767972304e+02 
 3.432772032e-01  1.774449251e+02 
 3.443823670e-01  1.780928594e+02 
 3.455497885e-01  1.787110142e+02 
 3.467694847e-01  1.792979837e+02 
 3.480029706e-01  1.798525697e+02 
 3.493618669e-01  1.803836992e+02 
 3.508518925e-01  1.808802557e+02 
 3.522682678e-01  1.813427600e+02 
 3.537746963e-01  1.818241736e+02 
 3.550816781e-01  1.822359841e+02 
 3.564783937e-01  1.826602777e+02 
 3.588460313e-01  1.829969123e+02 
 3.609940406e-01  1.833006992e+02 
 3.630509778e-01  1.835879041e+02 
 3.649392768e-01  1.838499979e+02 
 3.668114182e-01  1.841109337e+02 
 3.686682975e-01  1.842843309e+02 
 3.707635665e-01  1.844790262e+02 
 3.726780568e-01  1.846606751e+02 
 3.748547189e-01  1.848700452e+02 
 3.768949688e-01  1.850684895e+02 
 3.791159706e-01  1.851658095e+02 
 3.814760773e-01  1.852669214e+02 
 3.838644284e-01  1.853665044e+02 
 3.862261885e-01  1.854589655e+02 
 3.884857114e-01  1.854741764e+02 
 3.905988652e-01  1.854191991e+02 
 3.925602795e-01  1.853678343e+02 
 3.943675531e-01  1.853245542e+02 
 3.959193940e-01  1.852944512e+02 
 3.970368143e-01  1.851074401e+02 
 3.983896977e-01  1.847217419e+02 
 3.991714032e-01  1.845151397e+02 
 4.002735693e-01  1.843062601e+02 
 4.022287887e-01  1.840193550e+02 
 4.047995817e-01  1.837331162e+02 
 4.082378922e-01  1.833786493e+02 
 4.126177744e-01  1.829469257e+02 
 4.180125995e-01  1.825248961e+02 
 4.243369406e-01  1.821330742e+02 
 4.313630577e-01  1.817742731e+02 
 4.380795538e-01  1.814547031e+02 
 4.433944727e-01  1.810235108e+02 
 4.470769637e-01  1.805184025e+02 
 4.503289691e-01  1.799255295e+02 
 4.530621132e-01  1.792860504e+02 
 4.554559736e-01  1.786477282e+02 
 4.577170344e-01  1.780360525e+02 
 4.597054983e-01  1.774903367e+02 
 4.618813504e-01  1.769093804e+02 
 4.640899658e-01  1.762781891e+02 
 4.656264338e-01  1.754693114e+02 
 4.673488098e-01  1.746306140e+02 
 4.694566826e-01  1.736586237e+02 
 4.716076858e-01  1.727410319e+02 
 4.735133702e-01  1.719466587e+02 
 4.752804530e-01  1.712376325e+02 
 4.765966621e-01  1.705456995e+02 
 4.775667259e-01  1.698307648e+02 
 4.789496583e-01  1.691290217e+02 
 4.800763583e-01  1.685266895e+02 
 4.802328609e-01  1.679533431e+02 
 4.809876225e-01  1.673142744e+02 
 4.822003870e-01  1.665218308e+02 
 4.833768760e-01  1.656340033e+02 
 4.838883725e-01  1.648670296e+02 
 4.839912901e-01  1.642634655e+02 
 4.841385362e-01  1.637001281e+02 
 4.842801117e-01  1.631279046e+02 
 4.836090807e-01  1.627251440e+02 
 4.828460787e-01  1.623370943e+02 
 4.819855252e-01  1.619592312e+02 
 4.809837151e-01  1.615850794e+02 
 4.794659472e-01  1.613093265e+02 
 4.780537505e-01  1.610611432e+02 
 4.765204233e-01  1.607973918e+02 
 4.747595289e-01  1.604969888e+02 
 4.730477347e-01  1.602697289e+02 
 4.705159877e-01  1.600951249e+02 
 4.681126877e-01  1.599297164e+02 
 4.658091704e-01  1.597709500e+02 
 4.634807081e-01  1.596100921e+02 
 4.609548984e-01  1.594376029e+02 
 4.580137832e-01  1.593197543e+02 
 4.542923635e-01  1.593065772e+02 
 4.505944568e-01  1.592951089e+02 
 4.474166010e-01  1.592863248e+02 
 4.438688990e-01  1.592705135e+02 
 4.407118860e-01  1.592518713e+02 
 4.370564184e-01  1.593456886e+02 
 4.332290483e-01  1.594415571e+02 
 4.301705377e-01  1.595188118e+02 
 4.269392983e-01  1.595999546e+02 
 4.234606983e-01  1.596854004e+02 
 4.197808151e-01  1.597743437e+02 
 4.161091220e-01  1.598894308e+02 
 4.129085243e-01  1.600746039e+02 
 4.093803515e-01  1.602788353e+02 
 4.061957836e-01  1.604619677e+02 
 4.035142011e-01  1.606182476e+02 
 4.009798538e-01  1.607744825e+02 
 3.983416818e-01  1.609456907e+02 
 3.983416818e-01  1.609456907e+02 
S2 
 1.122128769e-01  1.523990229e+02 
 1.099720252e-01  1.524535056e+02 
 1.075275772e-01  1.525285019e+02 
 1.049815441e-01  1.526787438e+02 
 1.022190356e-01  1.528644957e+02 
 9.971301051e-02  1.530453686e+02 
 9.702110661e-02  1.532459972e+02 
 9.438220794e-02  1.534535769e+02 
 9.190377411e-02  1.536671422e+02 
 8.899835358e-02  1.539449731e+02 
 8.447381884e-02  1.544820981e+02 
 8.125965662e-02  1.549445208e+02 
 7.823960298e-02  1.554223396e+02 
 7.547104039e-02  1.559638962e+02 
 7.285398091e-02  1.565157842e+02 
 7.024940665e-02  1.571037288e+02 
 6.651726920e-02  1.580257217e+02 
 6.367081724e-02  1.588119702e+02 
 6.150436341e-02  1.595017968e+02 
 5.935420566e-02  1.602513380e+02 
 5.740402113e-02  1.609839217e+02 
 5.564065224e-02  1.617022677e+02 